Material: main / CaF2 / Kaiser
Optical constants. W. Kaiser, W. G. Spitzer, R. H. Kaiser, L. E. Howarth. Infrared properties of CaF2, SrF2, and BaF2. Phys. Rev. 127, 1950 (1962) [Calculation script (Python)]
Comments: Single crystal; Room temperature; Lorentz oscillator model parameters provided.
wavelength (um)	n	k
10.000	1.30405	2.904e-03
10.200	1.29829	3.121e-03
10.400	1.29235	3.352e-03
10.600	1.28623	3.597e-03
10.800	1.27992	3.858e-03
11.000	1.27341	4.134e-03
11.200	1.26671	4.428e-03
11.400	1.25981	4.740e-03
11.600	1.25270	5.071e-03
11.800	1.24536	5.423e-03
12.000	1.23781	5.797e-03
12.200	1.23002	6.195e-03
12.400	1.22199	6.617e-03
12.600	1.21372	7.066e-03
12.800	1.20519	7.543e-03
13.000	1.19639	8.051e-03
13.200	1.18731	8.591e-03
13.400	1.17795	9.166e-03
13.600	1.16829	9.778e-03
13.800	1.15832	1.043e-02
14.000	1.14803	1.113e-02
14.200	1.13739	1.187e-02
14.400	1.12641	1.266e-02
14.600	1.11506	1.351e-02
14.800	1.10333	1.441e-02
15.000	1.09119	1.538e-02
15.200	1.07863	1.642e-02
15.400	1.06563	1.754e-02
15.600	1.05216	1.873e-02
15.800	1.03820	2.002e-02
16.000	1.02372	2.141e-02
16.200	1.00869	2.290e-02
16.400	0.993078	2.451e-02
16.600	0.976851	2.626e-02
16.800	0.959968	2.816e-02
17.000	0.942386	3.022e-02
17.200	0.924055	3.246e-02
17.400	0.904923	3.491e-02
17.600	0.884928	3.760e-02
17.800	0.864002	4.056e-02
18.000	0.842068	4.382e-02
18.200	0.819037	4.744e-02
18.400	0.794810	5.148e-02
18.600	0.769269	5.601e-02
18.800	0.742279	6.112e-02
19.000	0.713682	6.693e-02
19.200	0.683293	7.361e-02
19.400	0.650895	8.138e-02
19.600	0.616231	9.051e-02
19.800	0.579011	1.014e-01
20.000	0.538917	1.148e-01
20.200	0.495659	1.315e-01
20.400	0.449122	1.528e-01
20.600	0.399771	1.809e-01
20.800	0.349462	2.180e-01
21.000	0.302246	2.655e-01
21.200	0.262998	3.215e-01
21.400	0.233798	3.812e-01
21.600	0.213297	4.403e-01
21.800	0.199110	4.972e-01
22.000	0.189281	5.514e-01
22.200	0.182486	6.030e-01
22.400	0.177869	6.523e-01
22.600	0.174870	6.997e-01
22.800	0.173117	7.455e-01
23.000	0.172355	7.898e-01
23.200	0.172404	8.329e-01
23.400	0.173135	8.750e-01
23.600	0.174455	9.161e-01
23.800	0.176293	9.565e-01
24.000	0.178595	9.963e-01
24.200	0.181319	1.035e+00
24.400	0.184434	1.074e+00
24.600	0.187911	1.112e+00
24.800	0.191730	1.150e+00
25.000	0.195870	1.187e+00
25.200	0.200315	1.224e+00
25.400	0.205047	1.261e+00
25.600	0.210050	1.297e+00
25.800	0.215305	1.334e+00
26.000	0.220794	1.369e+00
26.200	0.226495	1.405e+00
26.400	0.232384	1.441e+00
26.600	0.238432	1.476e+00
26.800	0.244608	1.511e+00
27.000	0.250876	1.546e+00
27.200	0.257195	1.581e+00
27.400	0.263518	1.616e+00
27.600	0.269796	1.650e+00
27.800	0.275972	1.685e+00
28.000	0.281987	1.719e+00
28.200	0.287776	1.753e+00
28.400	0.293275	1.788e+00
28.600	0.298414	1.822e+00
28.800	0.303128	1.857e+00
29.000	0.307352	1.892e+00
29.200	0.311025	1.928e+00
29.400	0.314094	1.964e+00
29.600	0.316514	2.000e+00
29.800	0.318253	2.037e+00
30.000	0.319289	2.076e+00
30.200	0.319619	2.115e+00
30.400	0.319251	2.156e+00
30.600	0.318211	2.198e+00
30.800	0.316541	2.242e+00
31.000	0.314296	2.287e+00
31.200	0.311546	2.335e+00
31.400	0.308371	2.384e+00
31.600	0.304861	2.436e+00
31.800	0.301113	2.491e+00
32.000	0.297228	2.548e+00
32.200	0.293312	2.608e+00
32.400	0.289469	2.671e+00
32.600	0.285807	2.738e+00
32.800	0.282430	2.807e+00
33.000	0.279445	2.881e+00
33.200	0.276956	2.958e+00
33.400	0.275069	3.039e+00
33.600	0.273895	3.125e+00
33.800	0.273547	3.215e+00
34.000	0.274148	3.310e+00
34.200	0.275835	3.411e+00
34.400	0.278761	3.519e+00
34.600	0.283102	3.632e+00
34.800	0.289068	3.754e+00
35.000	0.296911	3.883e+00
35.200	0.306943	4.022e+00
35.400	0.319551	4.171e+00
35.600	0.335225	4.332e+00
35.800	0.354599	4.507e+00
36.000	0.378502	4.697e+00
36.200	0.408036	4.906e+00
36.400	0.444699	5.136e+00
36.600	0.490567	5.392e+00
36.800	0.548589	5.680e+00
37.000	0.623072	6.006e+00
37.200	0.720520	6.380e+00
37.400	0.851133	6.816e+00
37.600	1.03167	7.330e+00
37.800	1.29118	7.948e+00
38.000	1.68340	8.705e+00
38.200	2.31521	9.641e+00
38.400	3.41306	1.077e+01
38.600	5.44255	1.191e+01
38.800	8.87151	1.195e+01
39.000	11.9696	9.192e+00
39.200	12.2810	5.722e+00
39.400	11.2980	3.590e+00
39.600	10.2474	2.431e+00
39.800	9.37370	1.766e+00
40.000	8.67263	1.352e+00
40.200	8.10621	1.079e+00
40.400	7.64116	8.873e-01
40.600	7.25285	7.478e-01
40.800	6.92358	6.426e-01
41.000	6.64056	5.611e-01
41.200	6.39441	4.964e-01
41.400	6.17814	4.441e-01
41.600	5.98641	4.011e-01
41.800	5.81511	3.653e-01
42.000	5.66101	3.350e-01
42.200	5.52154	3.091e-01
42.400	5.39462	2.868e-01
42.600	5.27855	2.674e-01
42.800	5.17195	2.504e-01
43.000	5.07365	2.354e-01
43.200	4.98268	2.221e-01
43.400	4.89821	2.102e-01
43.600	4.81954	1.995e-01
43.800	4.74607	1.899e-01
44.000	4.67728	1.811e-01
44.200	4.61273	1.732e-01
44.400	4.55200	1.659e-01
44.600	4.49477	1.593e-01
44.800	4.44073	1.531e-01
45.000	4.38960	1.475e-01
45.200	4.34116	1.422e-01
45.400	4.29518	1.374e-01
45.600	4.25148	1.328e-01
45.800	4.20989	1.286e-01
46.000	4.17025	1.247e-01
46.200	4.13242	1.210e-01
46.400	4.09628	1.175e-01
46.600	4.06172	1.143e-01
46.800	4.02863	1.112e-01
47.000	3.99692	1.083e-01
47.200	3.96649	1.055e-01
47.400	3.93728	1.029e-01
47.600	3.90920	1.005e-01
47.800	3.88220	9.814e-02
48.000	3.85621	9.592e-02
48.200	3.83117	9.380e-02
48.400	3.80703	9.178e-02
48.600	3.78374	8.986e-02
48.800	3.76126	8.802e-02
49.000	3.73954	8.626e-02
49.200	3.71855	8.458e-02
49.400	3.69825	8.297e-02
49.600	3.67860	8.142e-02
49.800	3.65958	7.993e-02
50.000	3.64115	7.851e-02
50.200	3.62329	7.713e-02
50.400	3.60597	7.581e-02
50.600	3.58916	7.454e-02
50.800	3.57284	7.331e-02
51.000	3.55700	7.213e-02
51.200	3.54161	7.099e-02
51.400	3.52665	6.989e-02
51.600	3.51210	6.882e-02
51.800	3.49795	6.779e-02
52.000	3.48418	6.679e-02
52.200	3.47078	6.583e-02
52.400	3.45772	6.489e-02
52.600	3.44501	6.399e-02
52.800	3.43261	6.311e-02
53.000	3.42053	6.225e-02
53.200	3.40875	6.143e-02
53.400	3.39726	6.062e-02
53.600	3.38605	5.984e-02
53.800	3.37511	5.908e-02
54.000	3.36442	5.834e-02
54.200	3.35399	5.763e-02
54.400	3.34380	5.693e-02
54.600	3.33384	5.625e-02
54.800	3.32410	5.558e-02
55.000	3.31459	5.494e-02
55.200	3.30528	5.431e-02
55.400	3.29618	5.369e-02
55.600	3.28727	5.309e-02
55.800	3.27856	5.251e-02
56.000	3.27003	5.194e-02
56.200	3.26168	5.138e-02
56.400	3.25350	5.084e-02
56.600	3.24549	5.031e-02
56.800	3.23765	4.979e-02
57.000	3.22996	4.928e-02
57.200	3.22243	4.879e-02
57.400	3.21504	4.830e-02
57.600	3.20780	4.782e-02
57.800	3.20070	4.736e-02
58.000	3.19374	4.691e-02
58.200	3.18691	4.646e-02
58.400	3.18021	4.602e-02
58.600	3.17364	4.560e-02
58.800	3.16718	4.518e-02
59.000	3.16085	4.477e-02
59.200	3.15463	4.437e-02
59.400	3.14852	4.397e-02
59.600	3.14253	4.359e-02
59.800	3.13664	4.321e-02
60.000	3.13085	4.283e-02
60.200	3.12517	4.247e-02
60.400	3.11958	4.211e-02
60.600	3.11409	4.176e-02
60.800	3.10869	4.141e-02
61.000	3.10339	4.108e-02
61.200	3.09817	4.074e-02
61.400	3.09304	4.042e-02
61.600	3.08800	4.009e-02
61.800	3.08304	3.978e-02
62.000	3.07816	3.947e-02
62.200	3.07336	3.916e-02
62.400	3.06863	3.886e-02
62.600	3.06398	3.857e-02
62.800	3.05941	3.828e-02
63.000	3.05490	3.799e-02
63.200	3.05047	3.771e-02
63.400	3.04611	3.744e-02
63.600	3.04181	3.717e-02
63.800	3.03758	3.690e-02
64.000	3.03341	3.664e-02
64.200	3.02930	3.638e-02
64.400	3.02526	3.612e-02
64.600	3.02128	3.587e-02
64.800	3.01735	3.563e-02
65.000	3.01349	3.538e-02
65.200	3.00968	3.514e-02
65.400	3.00592	3.491e-02
65.600	3.00222	3.467e-02
65.800	2.99857	3.444e-02
66.000	2.99497	3.422e-02
66.200	2.99143	3.399e-02
66.400	2.98793	3.378e-02
66.600	2.98448	3.356e-02
66.800	2.98108	3.335e-02
67.000	2.97773	3.313e-02
67.200	2.97442	3.293e-02
67.400	2.97116	3.272e-02
67.600	2.96794	3.252e-02
67.800	2.96477	3.232e-02
68.000	2.96164	3.212e-02
68.200	2.95855	3.193e-02
68.400	2.95550	3.174e-02
68.600	2.95249	3.155e-02
68.800	2.94952	3.136e-02
69.000	2.94658	3.118e-02
69.200	2.94369	3.100e-02
69.400	2.94083	3.082e-02
69.600	2.93801	3.064e-02
69.800	2.93523	3.047e-02
70.000	2.93248	3.030e-02
70.200	2.92976	3.012e-02
70.400	2.92708	2.996e-02
70.600	2.92443	2.979e-02
70.800	2.92182	2.963e-02
71.000	2.91924	2.946e-02
71.200	2.91668	2.930e-02
71.400	2.91416	2.915e-02
71.600	2.91167	2.899e-02
71.800	2.90921	2.883e-02
72.000	2.90678	2.868e-02
72.200	2.90438	2.853e-02
72.400	2.90201	2.838e-02
72.600	2.89966	2.823e-02
72.800	2.89735	2.809e-02
73.000	2.89505	2.794e-02
73.200	2.89279	2.780e-02
73.400	2.89055	2.766e-02
73.600	2.88834	2.752e-02
73.800	2.88615	2.738e-02
74.000	2.88399	2.725e-02
74.200	2.88185	2.711e-02
74.400	2.87974	2.698e-02
74.600	2.87765	2.684e-02
74.800	2.87558	2.671e-02
75.000	2.87354	2.659e-02
75.200	2.87152	2.646e-02
75.400	2.86952	2.633e-02
75.600	2.86755	2.621e-02
75.800	2.86559	2.608e-02
76.000	2.86366	2.596e-02
76.200	2.86174	2.584e-02
76.400	2.85985	2.572e-02
76.600	2.85798	2.560e-02
76.800	2.85613	2.548e-02
77.000	2.85430	2.536e-02
77.200	2.85248	2.525e-02
77.400	2.85069	2.514e-02
77.600	2.84891	2.502e-02
77.800	2.84716	2.491e-02
78.000	2.84542	2.480e-02
78.200	2.84370	2.469e-02
78.400	2.84200	2.458e-02
78.600	2.84031	2.447e-02
78.800	2.83864	2.437e-02
79.000	2.83699	2.426e-02
79.200	2.83536	2.416e-02
79.400	2.83374	2.405e-02
79.600	2.83214	2.395e-02
79.800	2.83055	2.385e-02
80.000	2.82898	2.375e-02
