Material: specs / crystran / CaCO3-e
Optical constants. Crystran Ltd. The Crystran handbook of infra-red and ultra-violet optical materials (5th edition, 2023) See also Crystran CaCO3 online data sheet
Comments: Optical data are for extraordinary ray (e).
Conditions: {"orientation": "e"}
wavelength (um)	n
0.20	1.5765
0.30	1.5137
0.41	1.4954
0.51	1.4896
0.64	1.4849
0.71	1.4835
0.80	1.4822
0.91	1.4810
1.04	1.4799
1.50	1.4774
1.91	1.4757
2.10	1.4749
