Material: specs / crystran / fused_silica-ir
Optical constants. Crystran Ltd. The Crystran handbook of infra-red and ultra-violet optical materials (5th edition, 2023) See also Crystran Fused silica online data sheet
Comments: Fused Silica is a hard, high temperature pure glass. Fused Silica is used for UV and visible components. Infra-red grades of Fused Silica are available for NIR use. Fused Silica is the glassy form of Quartz and is thus isotropic. Fused Silica is tough and hard and has a very low expansion. Normal varieties of Fused Silica contain water which gives strong absortion in the IR. Water-free varieties of Fused Silica are available. REFERENCES: (1) Handbook Optical Constants, ed Palik, V1, ISBN 0-12-544420-6 (2) Toyoda & Yabe J. Phys. D: Appl. Phys.,1 6 (1983)
Properties: {"density": [{"value": 2203}], "thermal_dispersion": [{"type": "constant", "value": 1.29e-05}], "thermal_expansion": [{"temperature": 300, "value": 5.5e-07}], "hardness": [{"type": "Knoop", "indenter_mass": 0.2, "value": "4.90e9"}], "melting_point": [{"value": 1873}], "thermal_conductivity": [{"value": 1.38}], "youngs_modulus": [{"value": "73.1e9"}], "poissons_ratio": [{"value": 0.17}], "solubility": [{"value": 0}]}
wavelength (um)	n
0.20	1.55051
0.25	1.50745
0.30	1.48779
0.36	1.47529
0.40	1.47012
0.45	1.46557
0.50	1.46233
0.55	1.46008
0.60	1.45804
0.65	1.45653
0.70	1.45529
0.75	1.45424
0.80	1.45332
0.85	1.45245
0.90	1.45175
1.00	1.45042
1.10	1.44920
1.20	1.44805
1.30	1.44692
1.50	1.44462
1.60	1.44342
1.70	1.44217
1.80	1.44087
1.90	1.43951
2.00	1.43809
2.20	1.43501
2.40	1.43163
2.60	1.42789
2.80	1.42377
3.00	1.41925
3.20	1.41427
3.37	1.41099
wavelength (um)	k
1.80	1.14E-07
1.81	1.34E-07
1.82	1.53E-07
1.83	1.69E-07
1.84	1.82E-07
1.85	1.91E-07
1.86	1.97E-07
1.87	1.99E-07
1.88	1.97E-07
1.89	1.92E-07
1.90	1.86E-07
1.91	1.81E-07
1.92	1.80E-07
1.93	1.79E-07
1.94	1.80E-07
1.95	1.81E-07
1.96	1.81E-07
1.97	1.82E-07
1.98	1.82E-07
1.99	1.81E-07
2.00	1.80E-07
2.01	1.80E-07
2.02	1.82E-07
2.03	1.87E-07
2.04	1.93E-07
2.05	1.99E-07
2.06	2.02E-07
2.07	1.99E-07
2.08	1.96E-07
2.09	2.04E-07
2.10	2.06E-07
2.11	1.33E-07
2.12	6.97E-08
2.13	1.24E-07
2.14	1.22E-07
2.15	1.10E-07
2.16	1.32E-07
2.17	1.52E-07
2.18	1.72E-07
2.19	1.96E-07
2.20	2.26E-07
2.21	2.42E-07
2.22	2.48E-07
2.23	2.49E-07
2.24	2.49E-07
2.25	2.48E-07
2.26	2.48E-07
2.27	2.47E-07
2.28	2.46E-07
2.29	2.44E-07
2.30	2.42E-07
2.31	2.39E-07
2.32	2.36E-07
2.33	2.34E-07
2.34	2.32E-07
2.35	2.31E-07
2.36	2.30E-07
2.37	2.30E-07
2.38	2.30E-07
2.39	2.31E-07
2.40	2.31E-07
2.41	2.33E-07
2.42	2.34E-07
2.43	2.36E-07
2.44	2.39E-07
2.45	2.41E-07
2.46	2.44E-07
2.47	2.45E-07
2.48	2.47E-07
2.49	2.49E-07
2.50	2.55E-07
2.51	2.66E-07
2.52	2.82E-07
2.53	3.00E-07
2.54	3.16E-07
2.55	3.29E-07
2.56	3.41E-07
2.57	3.53E-07
2.58	3.66E-07
2.59	3.79E-07
2.60	3.92E-07
2.61	4.04E-07
2.62	4.12E-07
2.63	4.16E-07
2.64	4.37E-07
2.65	4.99E-07
2.66	5.47E-07
2.67	6.07E-07
2.68	7.73E-07
2.69	1.36E-06
2.70	2.56E-06
2.71	3.59E-06
2.72	4.16E-06
2.73	4.21E-06
2.74	3.97E-06
2.75	3.69E-06
2.76	3.41E-06
2.77	3.14E-06
2.78	2.88E-06
2.79	2.63E-06
2.80	2.45E-06
2.81	2.32E-06
2.82	2.22E-06
2.83	2.18E-06
2.84	2.17E-06
2.85	2.19E-06
2.86	2.22E-06
2.87	2.28E-06
2.88	2.36E-06
2.89	2.44E-06
2.90	2.51E-06
2.91	2.57E-06
2.92	2.65E-06
2.93	2.73E-06
2.94	2.83E-06
2.95	2.92E-06
2.96	3.02E-06
2.97	3.10E-06
2.98	3.17E-06
2.99	3.27E-06
3.00	3.38E-06
3.01	3.42E-06
3.02	3.41E-06
3.03	3.41E-06
3.04	3.43E-06
3.05	3.45E-06
3.06	3.47E-06
3.07	3.48E-06
3.08	3.48E-06
3.09	3.49E-06
3.10	3.53E-06
3.11	3.60E-06
3.12	3.65E-06
3.13	3.68E-06
3.14	3.71E-06
3.15	3.73E-06
3.16	3.73E-06
3.17	3.72E-06
3.18	3.70E-06
3.19	3.68E-06
3.20	3.66E-06
3.21	3.64E-06
3.22	3.61E-06
3.23	3.59E-06
3.24	3.57E-06
3.25	3.55E-06
3.26	3.54E-06
3.27	3.53E-06
3.28	3.51E-06
3.29	3.49E-06
3.30	3.47E-06
3.31	3.47E-06
3.32	3.48E-06
3.33	3.50E-06
3.34	3.52E-06
3.35	3.57E-06
3.36	3.66E-06
3.37	3.82E-06
3.38	4.01E-06
3.39	4.20E-06
3.40	4.41E-06
3.41	4.67E-06
3.42	5.05E-06
3.43	5.34E-06
3.44	5.69E-06
3.45	6.15E-06
3.46	6.69E-06
3.47	7.32E-06
3.48	8.17E-06
3.49	9.08E-06
3.50	1.00E-05
3.51	1.11E-05
3.52	1.24E-05
3.53	1.37E-05
3.54	1.48E-05
3.55	1.59E-05
3.56	1.69E-05
3.57	1.80E-05
3.58	1.92E-05
3.59	2.04E-05
3.60	2.12E-05
3.61	2.22E-05
3.62	2.34E-05
3.63	2.48E-05
3.64	2.62E-05
3.65	2.79E-05
3.66	3.03E-05
3.67	3.26E-05
3.68	3.48E-05
3.69	3.74E-05
3.70	4.01E-05
3.71	4.23E-05
3.72	4.47E-05
3.73	4.65E-05
3.74	4.81E-05
3.75	4.93E-05
3.76	5.01E-05
3.77	5.07E-05
3.78	5.09E-05
3.79	5.08E-05
3.80	5.06E-05
3.81	5.05E-05
3.82	5.04E-05
3.83	5.04E-05
3.84	5.05E-05
3.85	5.06E-05
3.86	5.08E-05
3.87	5.12E-05
3.88	5.16E-05
3.89	5.21E-05
3.90	5.25E-05
3.91	5.30E-05
3.92	5.35E-05
3.93	5.41E-05
3.94	5.47E-05
3.95	5.56E-05
3.96	5.65E-05
3.97	5.74E-05
3.98	5.84E-05
3.99	5.96E-05
4.00	6.13E-05
4.01	6.33E-05
4.02	6.55E-05
4.03	6.80E-05
4.04	7.07E-05
4.05	7.40E-05
4.06	7.75E-05
4.07	8.09E-05
4.08	8.45E-05
4.09	8.84E-05
4.10	9.26E-05
4.11	9.71E-05
4.12	1.01E-04
4.13	1.05E-04
4.14	1.08E-04
4.15	1.12E-04
4.16	1.15E-04
4.17	1.18E-04
4.18	1.21E-04
4.19	1.23E-04
4.20	1.25E-04
4.21	1.31E-04
4.22	1.34E-04
4.23	1.39E-04
4.24	1.45E-04
4.25	1.51E-04
4.26	1.59E-04
4.27	1.67E-04
4.28	1.75E-04
4.29	1.84E-04
4.30	1.94E-04
4.31	2.05E-04
4.32	2.19E-04
4.33	2.32E-04
4.34	2.43E-04
4.35	2.53E-04
4.36	2.63E-04
4.37	2.72E-04
4.38	2.81E-04
4.39	2.87E-04
4.40	2.93E-04
4.41	2.97E-04
4.42	2.97E-04
4.43	2.95E-04
4.44	2.93E-04
4.45	2.90E-04
4.46	2.88E-04
4.47	2.86E-04
4.48	2.83E-04
4.49	2.76E-04
4.50	2.69E-04
4.51	2.63E-04
4.52	2.57E-04
4.53	2.52E-04
4.54	2.49E-04
4.55	2.47E-04
4.56	2.46E-04
4.57	2.45E-04
4.58	2.45E-04
4.59	2.47E-04
4.60	2.51E-04
4.61	2.56E-04
4.62	2.63E-04
4.63	2.70E-04
4.64	2.77E-04
4.65	2.86E-04
4.66	2.97E-04
4.67	3.10E-04
4.68	3.27E-04
4.69	3.45E-04
4.70	3.63E-04
4.71	3.80E-04
4.72	3.93E-04
4.73	4.03E-04
4.74	4.07E-04
4.75	4.02E-04
4.76	3.89E-04
4.77	3.80E-04
4.78	3.78E-04
4.79	3.82E-04
4.80	3.86E-04
4.81	3.87E-04
4.82	3.86E-04
4.83	3.84E-04
