Material: specs / crystran / KRS6
Optical constants. Crystran Ltd. The Crystran handbook of infra-red and ultra-violet optical materials (5th edition, 2023) See also Crystran KRS6 online data sheet
Comments: TlBr40Cl60 KRS-6 has few applications. Occasionally, it is required for research purposes. KRS-6 crystals are grown by the sealed-ampoule Stockbarger technique. Starting materials of the highest purity are selected to ensure that there are no anionic absorption bands between 2 and 16 microns and all crystals are checked for quality by using a pathlength of 120mm. Thallium salts are toxic, and KRS6 has enough solubility to require extreme caution. Careful handling with plastic gloves covered with soft cotton gloves as appropriate to delicate optics is required. REFERENCES: (1) Hettner and Leisegang; Optik, V3, p305, 1948 (2) Combes, Ballard, McCarthy: J.Opt Soc.Am. V41, p 215, 1951 (3) Handbook of Optical Constants, ed Palik, V3, ISBN 0-12-544423-0
Properties: {"density": [{"value": 7180}], "thermal_expansion": [{"value": "50e-06"}], "hardness": [{"type": "Knoop", "indenter_mass": 0.5, "value": "2.93e8"}], "melting_point": [{"value": 696}], "thermal_conductivity": [{"temperature": 293, "value": 0.7}], "youngs_modulus": [{"value": "20.68e9"}], "poissons_ratio": [{"value": 0.219}], "solubility": [{"temperature": 293, "value": 3}]}
wavelength (um)	n
0.6	2.3294
0.7	2.2982
0.8	2.2660
0.9	2.251
1.0	2.2404
1.5	2.2148
2.0	2.2059
3.0	2.199
4.0	2.1956
5.0	2.1928
6.0	2.190
7.0	2.187
8.0	2.1839
9.0	2.1805
10.0	2.1767
11.0	2.1723
12.0	2.1674
13.0	2.162
14.0	2.1563
15.0	2.1504
16.0	2.1442
17.0	2.1377
18.0	2.1309
19.0	2.1236
20.0	2.1154
21.0	2.1067
22.0	2.0976
23.0	2.0869
24.0	2.0752
wavelength (um)	k
0.376	3.70E-05
0.379	1.86E-05
0.382	9.40E-06
0.385	6.47E-06
0.388	5.21E-06
0.391	4.61E-06
0.394	4.30E-06
0.397	4.09E-06
0.400	3.97E-06
0.403	3.87E-06
0.406	3.79E-06
0.409	3.72E-06
0.412	3.66E-06
0.415	3.60E-06
0.418	3.55E-06
0.421	3.50E-06
0.424	3.46E-06
0.427	3.42E-06
0.430	3.38E-06
0.433	3.34E-06
0.436	3.31E-06
0.439	3.28E-06
0.442	3.25E-06
0.445	3.22E-06
0.448	3.19E-06
0.451	3.16E-06
0.454	3.13E-06
0.457	3.10E-06
0.460	3.07E-06
0.463	3.04E-06
0.466	3.01E-06
0.469	2.98E-06
0.472	2.96E-06
0.475	2.93E-06
0.478	2.90E-06
0.481	2.88E-06
0.484	2.86E-06
0.487	2.84E-06
0.490	2.82E-06
0.493	2.81E-06
0.496	2.79E-06
0.499	2.77E-06
0.502	2.75E-06
0.505	2.74E-06
0.508	2.72E-06
0.511	2.70E-06
0.514	2.68E-06
0.517	2.66E-06
0.520	2.65E-06
0.523	2.63E-06
0.526	2.61E-06
0.529	2.60E-06
0.532	2.58E-06
0.535	2.57E-06
0.538	2.56E-06
0.541	2.54E-06
0.544	2.53E-06
0.547	2.52E-06
0.550	2.50E-06
0.553	2.49E-06
0.556	2.48E-06
0.559	2.47E-06
0.562	2.46E-06
0.565	2.45E-06
0.568	2.44E-06
0.571	2.43E-06
0.574	2.43E-06
0.577	2.42E-06
0.580	2.41E-06
0.583	2.40E-06
0.586	2.39E-06
0.589	2.38E-06
0.592	2.37E-06
0.595	2.36E-06
0.598	2.35E-06
0.601	2.34E-06
0.604	2.32E-06
0.607	2.30E-06
0.610	2.28E-06
0.613	2.27E-06
0.616	2.26E-06
0.619	2.25E-06
0.622	2.24E-06
0.625	2.23E-06
0.628	2.22E-06
0.631	2.22E-06
0.634	2.21E-06
0.637	2.21E-06
0.640	2.20E-06
0.643	2.19E-06
0.646	2.19E-06
0.649	2.18E-06
0.652	2.18E-06
0.655	2.17E-06
0.658	2.16E-06
0.661	2.15E-06
0.664	2.15E-06
0.667	2.14E-06
0.670	2.13E-06
0.673	2.13E-06
0.676	2.12E-06
0.679	2.12E-06
0.682	2.12E-06
0.685	2.12E-06
0.688	2.11E-06
0.691	2.11E-06
0.694	2.10E-06
0.697	2.09E-06
0.700	2.08E-06
0.703	2.07E-06
0.706	2.07E-06
0.709	2.06E-06
0.712	2.06E-06
0.715	2.05E-06
0.718	2.05E-06
0.721	2.05E-06
0.724	2.05E-06
0.727	2.04E-06
0.730	2.04E-06
0.733	2.02E-06
0.736	2.00E-06
0.739	1.98E-06
0.742	1.97E-06
0.745	1.96E-06
0.748	1.96E-06
0.751	1.96E-06
0.754	1.96E-06
0.757	1.97E-06
0.760	1.97E-06
0.763	1.97E-06
0.766	1.98E-06
0.769	1.98E-06
0.772	1.98E-06
0.775	1.97E-06
0.778	1.97E-06
0.781	1.96E-06
0.784	1.96E-06
0.787	1.95E-06
0.790	1.95E-06
0.793	1.94E-06
0.796	1.93E-06
0.799	1.93E-06
0.802	1.92E-06
0.805	1.92E-06
0.808	1.92E-06
0.811	1.91E-06
0.814	1.91E-06
0.817	1.91E-06
0.820	1.91E-06
0.823	1.90E-06
0.826	1.90E-06
0.829	1.90E-06
0.832	1.89E-06
0.835	1.89E-06
0.838	1.88E-06
0.841	1.88E-06
0.844	1.87E-06
0.847	1.87E-06
0.850	1.86E-06
0.853	1.86E-06
0.856	1.85E-06
0.859	1.85E-06
0.862	1.84E-06
0.865	1.84E-06
0.868	1.84E-06
0.871	1.84E-06
0.874	1.84E-06
0.877	1.84E-06
0.880	1.84E-06
0.883	1.84E-06
0.886	1.84E-06
0.889	1.83E-06
0.892	1.83E-06
0.895	1.82E-06
0.898	1.82E-06
0.901	1.81E-06
0.904	1.81E-06
0.907	1.80E-06
0.910	1.80E-06
0.913	1.80E-06
0.916	1.80E-06
0.919	1.79E-06
0.922	1.79E-06
0.925	1.79E-06
0.928	1.79E-06
0.931	1.79E-06
0.934	1.79E-06
0.937	1.79E-06
0.940	1.79E-06
0.943	1.79E-06
0.946	1.79E-06
0.949	1.79E-06
0.952	1.78E-06
0.955	1.78E-06
0.958	1.78E-06
0.961	1.78E-06
0.964	1.77E-06
0.967	1.77E-06
0.970	1.77E-06
0.973	1.77E-06
0.976	1.76E-06
0.979	1.76E-06
0.982	1.76E-06
0.985	1.76E-06
0.988	1.76E-06
0.991	1.76E-06
0.994	1.76E-06
0.997	1.76E-06
1.000	1.76E-06
1.003	1.77E-06
1.006	1.77E-06
1.009	1.76E-06
1.012	1.76E-06
1.015	1.76E-06
1.018	1.75E-06
1.021	1.72E-06
1.024	1.66E-06
1.027	1.57E-06
1.030	1.62E-06
1.033	1.74E-06
1.036	1.76E-06
1.039	1.76E-06
1.042	1.75E-06
1.045	1.73E-06
1.048	1.73E-06
1.051	1.72E-06
1.054	1.71E-06
1.057	1.71E-06
1.060	1.71E-06
1.063	1.70E-06
1.066	1.70E-06
1.069	1.70E-06
1.072	1.69E-06
1.075	1.69E-06
1.078	1.69E-06
1.081	1.69E-06
1.084	1.68E-06
1.087	1.68E-06
1.090	1.68E-06
1.093	1.68E-06
1.096	1.67E-06
1.099	1.67E-06
2.6	7.42E-06
2.9	8.27E-06
3.2	8.99E-06
3.5	9.24E-06
3.8	9.65E-06
4.1	1.04E-05
4.4	1.12E-05
4.7	1.22E-05
5.0	1.32E-05
5.3	1.42E-05
5.6	1.50E-05
5.9	1.58E-05
6.2	1.68E-05
6.5	1.74E-05
6.8	1.84E-05
7.1	1.93E-05
7.4	2.03E-05
7.7	2.12E-05
8.0	2.21E-05
8.3	2.31E-05
8.6	2.40E-05
8.9	2.48E-05
9.2	2.53E-05
9.5	2.58E-05
9.8	2.64E-05
10.1	2.65E-05
10.4	2.69E-05
10.7	2.77E-05
11.0	2.86E-05
11.3	2.95E-05
11.6	3.01E-05
11.9	3.09E-05
12.2	3.19E-05
12.5	3.26E-05
12.8	3.34E-05
13.1	3.41E-05
13.4	3.49E-05
13.7	3.58E-05
14.0	3.68E-05
14.3	3.79E-05
14.6	3.89E-05
14.9	3.99E-05
15.2	4.07E-05
15.5	4.15E-05
15.8	4.23E-05
16.1	4.33E-05
16.4	4.44E-05
16.7	4.56E-05
17.0	4.66E-05
17.3	4.71E-05
17.6	4.91E-05
17.9	5.14E-05
18.2	5.35E-05
18.5	5.55E-05
18.8	5.92E-05
19.1	6.38E-05
19.4	6.97E-05
19.7	7.65E-05
20.0	8.34E-05
20.3	9.27E-05
20.6	1.05E-04
20.9	1.19E-04
21.2	1.35E-04
21.5	1.56E-04
21.8	1.81E-04
22.1	2.08E-04
