Material: specs / crystran / LaF3-e
Optical constants. Crystran Ltd. The Crystran handbook of infra-red and ultra-violet optical materials (5th edition, 2023) See also Crystran LaF3 online data sheet
Comments: Optical data are for extraordinary ray (e).
Conditions: {"orientation": "e"}
wavelength (um)	n
0.254	1.649
0.405	1.612
0.436	1.609
0.547	1.602
