Material: specs / hikari / BAF10
Optical constants. NIKON Zemax catalog 2017-11 (obtained from http://www.nikon.com)See also HIKARI glass data sheets
Conditions: {"temperature": 293}
Properties: {"nd": 1.67003, "Vd": 47.049915, "glass_code": 670471, "glass_status": "preferred", "density": [{"value": 3830}], "thermal_expansion": [{"temperature_range": "243 343", "value": 8.5e-06}], "dPgF": -0.0008}
Dispersion formula 3, range 0.4 0.7 um, coefficients 2.708194 0.004899893 2 0.03147874 -2 -0.002304342 -4 0.0003414449 -6 -1.465281e-05 -8
wavelength (um)	k
0.350	8.9652E-06
0.360	3.9714E-06
0.370	1.8143E-06
0.380	9.1052E-07
0.390	4.6808E-07
0.400	2.7928E-07
0.420	1.3296E-07
0.440	1.0304E-07
0.460	8.1431E-08
0.480	5.7730E-08
0.500	3.5972E-08
0.550	2.1939E-08
0.600	1.9137E-08
0.650	2.0732E-08
0.700	5.5732E-09
