Material: specs / hikari / BASF12
Optical constants. NIKON Zemax catalog 2017-11 (obtained from http://www.nikon.com)See also HIKARI glass data sheets
Conditions: {"temperature": 293}
Properties: {"nd": 1.66998, "Vd": 39.233289, "glass_code": 670392, "glass_status": "preferred", "density": [{"value": 3930}], "thermal_expansion": [{"temperature_range": "243 343", "value": 9.1e-06}], "dPgF": 0.0002}
Dispersion formula 3, range 0.4 0.7 um, coefficients 2.729422 -0.01897808 2 0.01735778 -2 0.002340995 -4 -0.000198277 -6 1.222741e-05 -8
wavelength (um)	k
0.290	-0.0000E+00
0.300	-0.0000E+00
0.310	-0.0000E+00
0.320	-0.0000E+00
0.330	-0.0000E+00
0.340	-0.0000E+00
0.350	-0.0000E+00
0.360	-0.0000E+00
0.370	-0.0000E+00
0.380	-0.0000E+00
0.390	-0.0000E+00
0.400	-0.0000E+00
0.420	-0.0000E+00
0.440	-0.0000E+00
0.460	-0.0000E+00
0.480	-0.0000E+00
0.500	-0.0000E+00
0.550	-0.0000E+00
0.600	-0.0000E+00
0.650	-0.0000E+00
0.700	-0.0000E+00
