Material: specs / hikari / BASF2
Optical constants. NIKON Zemax catalog 2017-11 (obtained from http://www.nikon.com)See also HIKARI glass data sheets
Conditions: {"temperature": 293}
Properties: {"nd": 1.66446, "Vd": 35.913505, "glass_code": 664359, "glass_status": "preferred", "density": [{"value": 3930}], "thermal_expansion": [{"temperature_range": "243 343", "value": 9.3e-06}], "dPgF": 0.0017}
Dispersion formula 3, range 0.4 0.7 um, coefficients 2.677014 0.003011704 2 0.03312038 -2 -0.0009256636 -4 0.0001805364 -6 -2.622153e-06 -8
wavelength (um)	k
0.340	1.0585E-05
0.350	4.4826E-06
0.360	2.1630E-06
0.370	1.1792E-06
0.380	7.1281E-07
0.390	4.6808E-07
0.400	3.1422E-07
0.420	1.5389E-07
0.440	8.8648E-08
0.460	5.1610E-08
0.480	3.0681E-08
0.500	1.5947E-08
0.550	4.3790E-09
0.600	4.7770E-09
0.650	5.1751E-09
0.700	-0.0000E+00
