Material: specs / hikari / E-LAF9
Optical constants. NIKON Zemax catalog 2017-11 (obtained from http://www.nikon.com)See also HIKARI glass data sheets
Conditions: {"temperature": 293}
Properties: {"nd": 1.79504, "Vd": 28.542951, "glass_code": 795285, "glass_status": "preferred", "density": [{"value": 3510}], "thermal_expansion": [{"temperature_range": "243 343", "value": 8.4e-06}], "dPgF": 0.011}
Dispersion formula 3, range 0.4 0.7 um, coefficients 3.100922 -0.01374983 2 0.03780926 -2 0.002077998 -4 -9.162097e-05 -6 1.798297e-05 -8
wavelength (um)	k
0.360	1.3193E-05
0.370	6.7797E-06
0.380	2.7708E-06
0.390	1.3369E-06
0.400	7.5033E-07
0.420	3.2993E-07
0.440	1.9437E-07
0.460	1.3421E-07
0.480	9.2791E-08
0.500	6.4177E-08
0.550	1.7542E-08
0.600	1.4345E-08
0.650	2.0732E-08
0.700	5.5707E-10
