Material: specs / hikari / E-LF7
Optical constants. NIKON Zemax catalog 2017-11 (obtained from http://www.nikon.com)See also HIKARI glass data sheets
Conditions: {"temperature": 296}
Properties: {"nd": 1.575006, "Vd": 41.481733, "glass_status": "preferred", "density": [{"value": 2540}], "thermal_expansion": [{"temperature_range": "243 343", "value": 7.8e-06}], "dPgF": 0.0014}
Dispersion formula 3, range 0.4 0.7 um, coefficients 2.42793483 -0.0101841542 2 0.01737719 -2 0.000782340309 -4 -4.23035005e-05 -6 5.02350788e-06 -8
wavelength (um)	k
0.400	-0.0000E+00
0.700	-0.0000E+00
