Material: specs / hikari / E-LLF2
Optical constants. NIKON Zemax catalog 2017-11 (obtained from http://www.nikon.com)See also HIKARI glass data sheets
Conditions: {"temperature": 296}
Properties: {"nd": 1.54072, "Vd": 47.224817, "glass_status": "preferred", "density": [{"value": 2520}], "thermal_expansion": [{"temperature_range": "243 343", "value": 8.1e-06}]}
Dispersion formula 3, range 0.4 0.7 um, coefficients 2.31105643 0.00359211226 2 0.0263534925 -2 -0.0028618174 -4 0.000442961085 -6 -2.22792621e-05 -8
wavelength (um)	k
0.400	-0.0000E+00
0.700	-0.0000E+00
