Material: specs / hikari / E-SK12
Optical constants. NIKON Zemax catalog 2017-11 (obtained from http://www.nikon.com)See also HIKARI glass data sheets
Conditions: {"temperature": 296}
Properties: {"nd": 1.58313, "Vd": 59.387186, "glass_status": "preferred", "density": [{"value": 3090}], "thermal_expansion": [{"temperature_range": "243 343", "value": 7.7e-06}], "dPgF": -0.0019}
Dispersion formula 3, range 0.4 0.7 um, coefficients 2.46638796 -0.00865760981 2 0.0144628215 -2 7.9427451e-05 -4 1.55773822e-05 -6 -5.24586883e-07 -8
wavelength (um)	k
0.400	-0.0000E+00
0.700	-0.0000E+00
