Material: specs / hikari / SF03
Optical constants. NIKON Zemax catalog 2017-11 (obtained from http://www.nikon.com)See also HIKARI glass data sheets
Conditions: {"temperature": 293}
Properties: {"nd": 1.84666, "Vd": 23.884051, "glass_code": 847239, "glass_status": "preferred", "density": [{"value": 5520}], "thermal_expansion": [{"temperature_range": "243 343", "value": 9.2e-06}], "dPgF": 0.0118}
Dispersion formula 3, range 0.4 0.7 um, coefficients 3.261335 -0.01832792 2 0.0415517 -2 0.00494909 -4 -0.0003884548 -6 3.837014e-05 -8
wavelength (um)	k
0.370	4.2020E-06
0.380	1.6998E-06
0.390	8.5172E-07
0.400	4.8008E-07
0.420	1.9261E-07
0.440	9.5838E-08
0.460	5.9043E-08
0.480	3.0681E-08
0.500	1.9944E-08
0.550	4.3790E-09
0.600	4.7770E-09
0.650	5.1751E-09
0.700	-0.0000E+00
