Material: main / MgO / Chernova
Optical constants. E. Chernova, C. Brooks, D. Chvostova, Z. Bryknar, A. Dejneka, M. Tyunina. Optical NIR-VIS-VUV constants of advanced substrates for thin-film devices. Opt. Mater. Express 7, 3844â€“3862 (2017) [Calculation script (Python)]
Comments: Single crystal MgO
wavelength (um)	n	k
1.4089e-01	2.0859e+00	2.5862e-01
1.4221e-01	2.0745e+00	2.5147e-01
1.4355e-01	2.0615e+00	2.4590e-01
1.4491e-01	2.0467e+00	2.4235e-01
1.4631e-01	2.0299e+00	2.4141e-01
1.4772e-01	2.0111e+00	2.4391e-01
1.4917e-01	1.9900e+00	2.5092e-01
1.5065e-01	1.9667e+00	2.6413e-01
1.5215e-01	1.9410e+00	2.8591e-01
1.5369e-01	1.9136e+00	3.2043e-01
1.5525e-01	1.8866e+00	3.7443e-01
1.5685e-01	1.8655e+00	4.5875e-01
1.5849e-01	1.8697e+00	5.9746e-01
1.6015e-01	1.9792e+00	8.1217e-01
1.6185e-01	2.3337e+00	9.6384e-01
1.6359e-01	2.9323e+00	6.5084e-01
1.6537e-01	2.7052e+00	1.3405e-01
1.6719e-01	2.5020e+00	4.7586e-02
1.6904e-01	2.3953e+00	2.4762e-02
1.7094e-01	2.3267e+00	1.5125e-02
1.7288e-01	2.2777e+00	1.0197e-02
1.7486e-01	2.2403e+00	7.3457e-03
1.7690e-01	2.2103e+00	5.5442e-03
1.7897e-01	2.1854e+00	4.3372e-03
1.8110e-01	2.1643e+00	3.4854e-03
1.8328e-01	2.1460e+00	2.8642e-03
1.8552e-01	2.1299e+00	2.3953e-03
1.8780e-01	2.1155e+00	2.0336e-03
1.9015e-01	2.1025e+00	1.7481e-03
1.9255e-01	2.0908e+00	1.5189e-03
1.9502e-01	2.0800e+00	1.3321e-03
1.9755e-01	2.0701e+00	1.1776e-03
2.0014e-01	2.0609e+00	1.0486e-03
2.0281e-01	2.0524e+00	9.3953e-04
2.0555e-01	2.0444e+00	8.4667e-04
2.0836e-01	2.0369e+00	7.6677e-04
2.1125e-01	2.0299e+00	6.9760e-04
2.1422e-01	2.0233e+00	6.3727e-04
2.1728e-01	2.0171e+00	5.8435e-04
2.2042e-01	2.0111e+00	5.3766e-04
2.2366e-01	2.0055e+00	4.9621e-04
2.2699e-01	2.0002e+00	4.5931e-04
2.3043e-01	1.9951e+00	4.2625e-04
2.3397e-01	1.9902e+00	3.9655e-04
2.3762e-01	1.9856e+00	3.6973e-04
2.4139e-01	1.9811e+00	3.4546e-04
2.4527e-01	1.9769e+00	3.2339e-04
2.4929e-01	1.9728e+00	3.0327e-04
2.5344e-01	1.9689e+00	2.8488e-04
2.5773e-01	1.9652e+00	2.6801e-04
2.6216e-01	1.9616e+00	2.5250e-04
2.6675e-01	1.9581e+00	2.3820e-04
2.7151e-01	1.9548e+00	2.2500e-04
2.7644e-01	1.9516e+00	2.1278e-04
2.8155e-01	1.9485e+00	2.0143e-04
2.8685e-01	1.9456e+00	1.9087e-04
2.9236e-01	1.9427e+00	1.8104e-04
2.9808e-01	1.9399e+00	1.7185e-04
3.0403e-01	1.9373e+00	1.6326e-04
3.1023e-01	1.9347e+00	1.5522e-04
3.1668e-01	1.9323e+00	1.4766e-04
3.2340e-01	1.9299e+00	1.4056e-04
3.3042e-01	1.9276e+00	1.3387e-04
3.3775e-01	1.9254e+00	1.2757e-04
3.4541e-01	1.9232e+00	1.2161e-04
3.5342e-01	1.9212e+00	1.1597e-04
3.6182e-01	1.9192e+00	1.1063e-04
3.7063e-01	1.9172e+00	1.0557e-04
3.7987e-01	1.9154e+00	1.0076e-04
3.8959e-01	1.9136e+00	9.6178e-05
3.9982e-01	1.9119e+00	9.1821e-05
4.1060e-01	1.9102e+00	8.7664e-05
4.2198e-01	1.9087e+00	8.3694e-05
4.3400e-01	1.9071e+00	7.9899e-05
4.4673e-01	1.9056e+00	7.6267e-05
4.6023e-01	1.9042e+00	7.2784e-05
4.7458e-01	1.9029e+00	6.9441e-05
4.8984e-01	1.9015e+00	6.6232e-05
5.0612e-01	1.9002e+00	6.3143e-05
5.2352e-01	1.8990e+00	6.0168e-05
5.4216e-01	1.8979e+00	5.7299e-05
5.6217e-01	1.8967e+00	5.4531e-05
5.8372e-01	1.8957e+00	5.1854e-05
6.0698e-01	1.8947e+00	4.9263e-05
6.3218e-01	1.8937e+00	4.6754e-05
6.5956e-01	1.8927e+00	4.4320e-05
6.8942e-01	1.8919e+00	4.1955e-05
7.2211e-01	1.8910e+00	3.9656e-05
7.5806e-01	1.8902e+00	3.7418e-05
7.9777e-01	1.8895e+00	3.5237e-05
8.4187e-01	1.8888e+00	3.3108e-05
8.9113e-01	1.8881e+00	3.1028e-05
9.4652e-01	1.8874e+00	2.8994e-05
1.0092e+00	1.8869e+00	2.7001e-05
1.0809e+00	1.8863e+00	2.5046e-05
1.1635e+00	1.8858e+00	2.3127e-05
1.2597e+00	1.8853e+00	2.1240e-05
1.3733e+00	1.8849e+00	1.9383e-05
1.5094e+00	1.8845e+00	1.7552e-05
1.6755e+00	1.8841e+00	1.5745e-05
