Material: main / MgO / Synowicki-IR
Optical constants. R.A. Synowicki and T. E. Tiwald. Optical properties of bulk c-ZrO2, c-MgO and a-As2S3 determined by variable angle spectroscopic ellipsometry. Thin Solid Films 455-456, 248-255 (2004) Calculation scripts (Python): Synowicki 2004 - MgO -- IR.py Synowicki 2004 - Aux funcs.py
Comments: Data generated from oscillator model.
wavelength (um)	n	k
3.3000e+01	4.1255e+00	1.4551e-02
3.2843e+01	4.1518e+00	1.4912e-02
3.2685e+01	4.1790e+00	1.5290e-02
3.2528e+01	4.2073e+00	1.5689e-02
3.2371e+01	4.2366e+00	1.6107e-02
3.2214e+01	4.2670e+00	1.6549e-02
3.2056e+01	4.2986e+00	1.7014e-02
3.1899e+01	4.3315e+00	1.7507e-02
3.1742e+01	4.3657e+00	1.8026e-02
3.1584e+01	4.4013e+00	1.8578e-02
3.1427e+01	4.4384e+00	1.9163e-02
3.1270e+01	4.4772e+00	1.9784e-02
3.1113e+01	4.5177e+00	2.0446e-02
3.0955e+01	4.5599e+00	2.1150e-02
3.0798e+01	4.6043e+00	2.1904e-02
3.0641e+01	4.6507e+00	2.2710e-02
3.0483e+01	4.6994e+00	2.3573e-02
3.0326e+01	4.7506e+00	2.4504e-02
3.0169e+01	4.8045e+00	2.5505e-02
3.0012e+01	4.8612e+00	2.6585e-02
2.9854e+01	4.9210e+00	2.7753e-02
2.9697e+01	4.9844e+00	2.9026e-02
2.9540e+01	5.0515e+00	3.0410e-02
2.9382e+01	5.1227e+00	3.1922e-02
2.9225e+01	5.1983e+00	3.3577e-02
2.9068e+01	5.2788e+00	3.5396e-02
2.8911e+01	5.3650e+00	3.7412e-02
2.8753e+01	5.4573e+00	3.9648e-02
2.8596e+01	5.5565e+00	4.2140e-02
2.8439e+01	5.6633e+00	4.4932e-02
2.8281e+01	5.7788e+00	4.8078e-02
2.8124e+01	5.9041e+00	5.1646e-02
2.7967e+01	6.0406e+00	5.5719e-02
2.7810e+01	6.1902e+00	6.0406e-02
2.7652e+01	6.3547e+00	6.5846e-02
2.7495e+01	6.5368e+00	7.2220e-02
2.7338e+01	6.7397e+00	7.9770e-02
2.7180e+01	6.9673e+00	8.8825e-02
2.7023e+01	7.2254e+00	9.9864e-02
2.6866e+01	7.5215e+00	1.1360e-01
2.6709e+01	7.8646e+00	1.3097e-01
2.6551e+01	8.2678e+00	1.5348e-01
2.6394e+01	8.7499e+00	1.8349e-01
2.6237e+01	9.3428e+00	2.2544e-01
2.6079e+01	1.0095e+01	2.8724e-01
2.5922e+01	1.1082e+01	3.8376e-01
2.5765e+01	1.2463e+01	5.5198e-01
2.5608e+01	1.4607e+01	9.0371e-01
2.5450e+01	1.8435e+01	1.8532e+00
2.5293e+01	2.8238e+01	8.6040e+00
2.5136e+01	1.0475e+01	2.9261e+01
2.4978e+01	2.0521e+00	1.8804e+01
2.4821e+01	9.2437e-01	1.4477e+01
2.4664e+01	5.5220e-01	1.2165e+01
2.4507e+01	3.7330e-01	1.0649e+01
2.4349e+01	2.7436e-01	9.5729e+00
2.4192e+01	2.1182e-01	8.7484e+00
2.4035e+01	1.6951e-01	8.0901e+00
2.3877e+01	1.3963e-01	7.5510e+00
2.3720e+01	1.1748e-01	7.0968e+00
2.3563e+01	1.0053e-01	6.7065e+00
2.3406e+01	8.7245e-02	6.3662e+00
2.3248e+01	7.6620e-02	6.0660e+00
2.3091e+01	6.7978e-02	5.7982e+00
2.2934e+01	6.0846e-02	5.5573e+00
2.2776e+01	5.4887e-02	5.3388e+00
2.2619e+01	4.9855e-02	5.1393e+00
2.2462e+01	4.5565e-02	4.9560e+00
2.2305e+01	4.1881e-02	4.7867e+00
2.2147e+01	3.8693e-02	4.6296e+00
2.1990e+01	3.5920e-02	4.4831e+00
2.1833e+01	3.3497e-02	4.3460e+00
2.1675e+01	3.1378e-02	4.2174e+00
2.1518e+01	2.9513e-02	4.0963e+00
2.1361e+01	2.7869e-02	3.9818e+00
2.1204e+01	2.6423e-02	3.8734e+00
2.1046e+01	2.5148e-02	3.7705e+00
2.0889e+01	2.4028e-02	3.6726e+00
2.0732e+01	2.3047e-02	3.5791e+00
2.0574e+01	2.2192e-02	3.4898e+00
2.0417e+01	2.1455e-02	3.4043e+00
2.0260e+01	2.0828e-02	3.3223e+00
2.0103e+01	2.0304e-02	3.2435e+00
1.9945e+01	1.9879e-02	3.1676e+00
1.9788e+01	1.9552e-02	3.0945e+00
1.9631e+01	1.9321e-02	3.0240e+00
1.9473e+01	1.9186e-02	2.9557e+00
1.9316e+01	1.9150e-02	2.8897e+00
1.9159e+01	1.9217e-02	2.8257e+00
1.9002e+01	1.9393e-02	2.7637e+00
1.8844e+01	1.9685e-02	2.7034e+00
1.8687e+01	2.0104e-02	2.6447e+00
1.8530e+01	2.0662e-02	2.5876e+00
1.8372e+01	2.1377e-02	2.5320e+00
1.8215e+01	2.2266e-02	2.4777e+00
1.8058e+01	2.3356e-02	2.4248e+00
1.7901e+01	2.4676e-02	2.3730e+00
1.7743e+01	2.6259e-02	2.3224e+00
1.7586e+01	2.8149e-02	2.2730e+00
1.7429e+01	3.0391e-02	2.2246e+00
1.7271e+01	3.3040e-02	2.1773e+00
1.7114e+01	3.6157e-02	2.1311e+00
1.6957e+01	3.9794e-02	2.0861e+00
1.6799e+01	4.4000e-02	2.0423e+00
1.6642e+01	4.8794e-02	1.9999e+00
1.6485e+01	5.4143e-02	1.9590e+00
1.6328e+01	5.9921e-02	1.9200e+00
1.6170e+01	6.5874e-02	1.8830e+00
1.6013e+01	7.1582e-02	1.8482e+00
1.5856e+01	7.6477e-02	1.8157e+00
1.5698e+01	7.9924e-02	1.7853e+00
1.5541e+01	8.1366e-02	1.7563e+00
1.5384e+01	8.0564e-02	1.7279e+00
1.5227e+01	7.7616e-02	1.6994e+00
1.5069e+01	7.2985e-02	1.6701e+00
1.4912e+01	6.7289e-02	1.6396e+00
1.4755e+01	6.1134e-02	1.6078e+00
1.4597e+01	5.4999e-02	1.5750e+00
1.4440e+01	4.9201e-02	1.5413e+00
1.4283e+01	4.3906e-02	1.5070e+00
1.4126e+01	3.9180e-02	1.4723e+00
1.3968e+01	3.5022e-02	1.4374e+00
1.3811e+01	3.1393e-02	1.4024e+00
1.3654e+01	2.8239e-02	1.3675e+00
1.3496e+01	2.5502e-02	1.3326e+00
1.3339e+01	2.3126e-02	1.2979e+00
1.3182e+01	2.1059e-02	1.2632e+00
1.3025e+01	1.9258e-02	1.2286e+00
1.2867e+01	1.7684e-02	1.1942e+00
1.2710e+01	1.6304e-02	1.1598e+00
1.2553e+01	1.5091e-02	1.1255e+00
1.2395e+01	1.4022e-02	1.0911e+00
1.2238e+01	1.3076e-02	1.0568e+00
1.2081e+01	1.2239e-02	1.0223e+00
1.1924e+01	1.1497e-02	9.8779e-01
1.1766e+01	1.0837e-02	9.5307e-01
1.1609e+01	1.0252e-02	9.1812e-01
1.1452e+01	9.7335e-03	8.8286e-01
1.1294e+01	9.2752e-03	8.4723e-01
1.1137e+01	8.8725e-03	8.1113e-01
1.0980e+01	8.5221e-03	7.7446e-01
1.0823e+01	8.2218e-03	7.3709e-01
1.0665e+01	7.9711e-03	6.9887e-01
1.0508e+01	7.7710e-03	6.5962e-01
1.0351e+01	7.6252e-03	6.1909e-01
1.0193e+01	7.5409e-03	5.7698e-01
1.0036e+01	7.5307e-03	5.3288e-01
9.8789e+00	7.6171e-03	4.8619e-01
9.7216e+00	7.8418e-03	4.3603e-01
9.5643e+00	8.2894e-03	3.8101e-01
9.4070e+00	9.1611e-03	3.1855e-01
9.2497e+00	1.1102e-02	2.4293e-01
9.0925e+00	1.8631e-02	1.3387e-01
8.9352e+00	1.5101e-01	1.5265e-02
8.7779e+00	2.4837e-01	8.5784e-03
8.6206e+00	3.1560e-01	6.2402e-03
8.4633e+00	3.6941e-01	4.9274e-03
8.3060e+00	4.1510e-01	4.0521e-03
8.1487e+00	4.5512e-01	3.4141e-03
7.9915e+00	4.9089e-01	2.9231e-03
7.8342e+00	5.2331e-01	2.5311e-03
7.6769e+00	5.5298e-01	2.2099e-03
7.5196e+00	5.8035e-01	1.9416e-03
7.3623e+00	6.0574e-01	1.7141e-03
7.2050e+00	6.2940e-01	1.5189e-03
7.0477e+00	6.5155e-01	1.3500e-03
6.8905e+00	6.7235e-01	1.2025e-03
6.7332e+00	6.9192e-01	1.0730e-03
6.5759e+00	7.1038e-01	9.5867e-04
6.4186e+00	7.2783e-01	8.5728e-04
6.2613e+00	7.4435e-01	7.6703e-04
6.1040e+00	7.6000e-01	6.8645e-04
5.9467e+00	7.7485e-01	6.1430e-04
5.7894e+00	7.8896e-01	5.4957e-04
5.6322e+00	8.0237e-01	4.9138e-04
5.4749e+00	8.1511e-01	4.3901e-04
5.3176e+00	8.2724e-01	3.9180e-04
5.1603e+00	8.3879e-01	3.4923e-04
5.0030e+00	8.4977e-01	3.1081e-04
4.8457e+00	8.6023e-01	2.7612e-04
4.6884e+00	8.7018e-01	2.4481e-04
4.5312e+00	8.7965e-01	2.1655e-04
4.3739e+00	8.8865e-01	1.9106e-04
4.2166e+00	8.9722e-01	1.6808e-04
4.0593e+00	9.0535e-01	1.4738e-04
3.9020e+00	9.1308e-01	1.2877e-04
3.7447e+00	9.2041e-01	1.1205e-04
3.5874e+00	9.2736e-01	9.7072e-05
3.4302e+00	9.3393e-01	8.3679e-05
3.2729e+00	9.4015e-01	7.1735e-05
3.1156e+00	9.4602e-01	6.1116e-05
2.9583e+00	9.5155e-01	5.1710e-05
2.8010e+00	9.5674e-01	4.3413e-05
2.6437e+00	9.6161e-01	3.6128e-05
2.4864e+00	9.6617e-01	2.9767e-05
2.3291e+00	9.7041e-01	2.4249e-05
2.1719e+00	9.7435e-01	1.9498e-05
2.0146e+00	9.7800e-01	1.5442e-05
1.8573e+00	9.8135e-01	1.2015e-05
1.7000e+00	9.8441e-01	9.1539e-06
