Material: organic / (C41H53FO4S4)n - PTB7 / Kamptner-o
Optical constants. A. Kamptner, M. C. Scharber, M. Schiek. Accurate determination of the uniaxial complex refractive index and the optical band gap of polymer thin films to correlate their absorption strength and onset of absorption. Chem. Phys. Chem. e202400233 (2024) (Numerical data kindly provided by Manuela Schiek)
Comments: Ordinary ray (o)
wavelength (um)	n	k
0.19146	1.66749	2.14060E-01
0.19465	1.65836	2.03490E-01
0.19784	1.64191	2.00120E-01
0.20104	1.62579	1.99110E-01
0.20423	1.61003	2.03730E-01
0.20742	1.59598	2.12450E-01
0.21062	1.58658	2.29230E-01
0.21381	1.59099	2.49380E-01
0.21701	1.60761	2.57770E-01
0.22020	1.62081	2.52780E-01
0.22340	1.62510	2.43820E-01
0.22659	1.62420	2.37460E-01
0.22979	1.62147	2.33290E-01
0.23298	1.61710	2.30890E-01
0.23618	1.61087	2.31810E-01
0.23938	1.60562	2.37930E-01
0.24257	1.60505	2.47970E-01
0.24577	1.61118	2.57490E-01
0.24897	1.62078	2.62560E-01
0.25216	1.63070	2.63930E-01
0.25536	1.63993	2.62760E-01
0.25856	1.64820	2.59880E-01
0.26176	1.65552	2.55750E-01
0.26496	1.66195	2.50530E-01
0.26815	1.66717	2.44040E-01
0.27135	1.67027	2.36700E-01
0.27455	1.67099	2.29680E-01
0.27775	1.66965	2.24170E-01
0.28095	1.66743	2.21230E-01
0.28415	1.66619	2.20620E-01
0.28735	1.66665	2.21100E-01
0.29055	1.66883	2.21750E-01
0.29375	1.67255	2.21940E-01
0.29695	1.67760	2.21060E-01
0.30015	1.68346	2.18480E-01
0.30335	1.68916	2.13950E-01
0.30655	1.69394	2.07970E-01
0.30975	1.69762	2.01070E-01
0.31295	1.70019	1.93550E-01
0.31615	1.70162	1.85600E-01
0.31935	1.70175	1.77470E-01
0.32255	1.70061	1.69580E-01
0.32576	1.69854	1.62300E-01
0.32896	1.69604	1.55550E-01
0.33216	1.69320	1.48980E-01
0.33536	1.68981	1.42300E-01
0.33856	1.68548	1.35670E-01
0.34176	1.68011	1.29350E-01
0.34497	1.67363	1.23620E-01
0.34817	1.66608	1.18860E-01
0.35137	1.65771	1.15480E-01
0.35457	1.64904	1.13770E-01
0.35777	1.64070	1.13560E-01
0.36098	1.63298	1.14480E-01
0.36418	1.62597	1.16200E-01
0.36738	1.61961	1.18500E-01
0.37058	1.61390	1.21250E-01
0.37379	1.60883	1.24350E-01
0.37699	1.60441	1.27670E-01
0.38019	1.60064	1.31060E-01
0.38339	1.59746	1.34380E-01
0.38660	1.59476	1.37500E-01
0.38980	1.59241	1.40330E-01
0.39300	1.59028	1.42840E-01
0.39621	1.58824	1.44990E-01
0.39941	1.58612	1.46770E-01
0.40261	1.58369	1.48280E-01
0.40581	1.58084	1.49770E-01
0.40902	1.57761	1.51450E-01
0.41222	1.57411	1.53520E-01
0.41542	1.57061	1.56070E-01
0.41863	1.56729	1.58970E-01
0.42183	1.56422	1.62050E-01
0.42503	1.56136	1.65200E-01
0.42823	1.55862	1.68290E-01
0.43144	1.55585	1.71350E-01
0.43464	1.55299	1.74480E-01
0.43784	1.55004	1.77750E-01
0.44105	1.54705	1.81240E-01
0.44425	1.54411	1.84990E-01
0.44745	1.54135	1.88920E-01
0.45065	1.53876	1.92930E-01
0.45386	1.53632	1.96920E-01
0.45706	1.53396	2.00810E-01
0.46026	1.53154	2.04530E-01
0.46346	1.52886	2.08160E-01
0.46667	1.52587	2.11820E-01
0.46987	1.52254	2.15640E-01
0.47307	1.51886	2.19730E-01
0.47627	1.51488	2.24190E-01
0.47947	1.51065	2.29100E-01
0.48267	1.50624	2.34530E-01
0.48588	1.50169	2.40520E-01
0.48908	1.49709	2.47130E-01
0.49228	1.49250	2.54380E-01
0.49548	1.48802	2.62330E-01
0.49868	1.48375	2.70960E-01
0.50188	1.47980	2.80250E-01
0.50508	1.47623	2.90130E-01
0.50828	1.47309	3.00550E-01
0.51149	1.47041	3.11460E-01
0.51469	1.46820	3.22810E-01
0.51789	1.46645	3.34570E-01
0.52109	1.46514	3.46720E-01
0.52429	1.46428	3.59310E-01
0.52749	1.46390	3.72370E-01
0.53069	1.46407	3.85910E-01
0.53389	1.46485	3.99940E-01
0.53709	1.46633	4.14460E-01
0.54028	1.46860	4.29450E-01
0.54348	1.47179	4.44860E-01
0.54668	1.47598	4.60560E-01
0.54988	1.48120	4.76440E-01
0.55308	1.48747	4.92390E-01
0.55628	1.49480	5.08330E-01
0.55948	1.50318	5.24140E-01
0.56267	1.51256	5.39730E-01
0.56587	1.52290	5.55050E-01
0.56907	1.53412	5.70040E-01
0.57227	1.54618	5.84740E-01
0.57546	1.55910	5.99150E-01
0.57866	1.57291	6.13290E-01
0.58186	1.58768	6.27130E-01
0.58505	1.60347	6.40600E-01
0.58825	1.62033	6.53650E-01
0.59144	1.63834	6.66190E-01
0.59464	1.65763	6.78140E-01
0.59783	1.67839	6.89200E-01
0.60103	1.70053	6.98940E-01
0.60422	1.72384	7.07060E-01
0.60742	1.74802	7.13320E-01
0.61061	1.77271	7.17570E-01
0.61381	1.79753	7.19810E-01
0.61700	1.82220	7.20090E-01
0.62019	1.84641	7.18480E-01
0.62339	1.86985	7.15050E-01
0.62658	1.89204	7.09980E-01
0.62977	1.91259	7.03870E-01
0.63296	1.93150	6.97390E-01
0.63616	1.94902	6.91040E-01
0.63935	1.96548	6.85280E-01
0.64254	1.98141	6.80420E-01
0.64573	1.99743	6.76470E-01
0.64892	2.01396	6.73230E-01
0.65211	2.03132	6.70530E-01
0.65530	2.04983	6.68200E-01
0.65849	2.06989	6.66070E-01
0.66168	2.09218	6.63720E-01
0.66487	2.11703	6.60050E-01
0.66805	2.14419	6.54070E-01
0.67124	2.17312	6.44950E-01
0.67443	2.20310	6.32050E-01
0.67762	2.23322	6.14890E-01
0.68080	2.26219	5.93370E-01
0.68399	2.28910	5.68100E-01
0.68718	2.31347	5.39600E-01
0.69036	2.33494	5.08300E-01
0.69355	2.35318	4.74550E-01
0.69673	2.36781	4.38650E-01
0.69992	2.37815	4.01020E-01
0.70310	2.38369	3.62630E-01
0.70628	2.38441	3.24530E-01
0.70947	2.38049	2.87640E-01
0.71265	2.37228	2.52840E-01
0.71583	2.36034	2.20960E-01
0.71902	2.34557	1.92840E-01
0.72220	2.32941	1.68710E-01
0.72538	2.31281	1.48030E-01
0.72856	2.29632	1.30310E-01
0.73174	2.28028	1.15080E-01
0.73492	2.26492	1.01890E-01
0.73810	2.25035	9.03200E-02
0.74128	2.23653	7.99600E-02
0.74446	2.22328	7.05700E-02
0.74763	2.21050	6.20700E-02
0.75081	2.19813	5.44200E-02
0.75399	2.18618	4.75500E-02
0.75716	2.17463	4.14200E-02
0.76034	2.16349	3.59500E-02
0.76352	2.15275	3.11100E-02
0.76669	2.14243	2.68400E-02
0.76987	2.13252	2.30900E-02
0.77304	2.12302	1.98100E-02
0.77621	2.11394	1.69500E-02
0.77939	2.10526	1.44600E-02
0.78256	2.09699	1.23000E-02
0.78573	2.08910	1.04200E-02
0.78890	2.08158	8.78000E-03
0.79207	2.07441	7.33000E-03
0.79524	2.06756	6.06000E-03
0.79841	2.06099	4.95000E-03
0.80158	2.05470	3.99000E-03
0.80475	2.04868	3.17000E-03
0.80792	2.04291	2.47000E-03
0.81109	2.03738	1.89000E-03
0.81425	2.03208	1.41000E-03
0.81742	2.02701	1.02000E-03
0.82058	2.02216	7.09000E-04
0.82375	2.01751	4.71000E-04
0.82691	2.01307	2.95000E-04
0.83008	2.00881	1.70000E-04
0.83324	2.00474	8.60000E-05
0.83641	2.00085	3.60000E-05
0.83957	1.99712	1.10000E-05
0.84273	1.99356	1.00000E-06
0.84589	1.99014	0
0.84905	1.98685	0
0.85221	1.98369	0
0.85537	1.98064	0
0.85853	1.97770	0
0.86169	1.97486	0
0.86484	1.97211	0
0.86800	1.96944	0
0.87116	1.96686	0
0.87431	1.96436	0
0.87747	1.96193	0
0.88062	1.95958	0
0.88377	1.95729	0
0.88693	1.95506	0
0.89008	1.95290	0
0.89323	1.95079	0
0.89638	1.94874	0
0.89953	1.94675	0
0.90268	1.94481	0
0.90583	1.94291	0
0.90898	1.94107	0
0.91212	1.93927	0
0.91527	1.93751	0
0.91842	1.93579	0
0.92156	1.93412	0
0.92470	1.93248	0
0.92785	1.93088	0
0.93099	1.92932	0
0.93413	1.92779	0
0.93728	1.92630	0
0.94042	1.92484	0
0.94356	1.92341	0
0.94669	1.92201	0
0.94983	1.92064	0
0.95297	1.91930	0
0.95611	1.91798	0
0.95924	1.91670	0
0.96238	1.91544	0
0.96551	1.91420	0
0.96865	1.91299	0
0.97178	1.91180	0
0.97491	1.91064	0
0.97804	1.90949	0
0.98117	1.90837	0
0.98430	1.90727	0
0.98743	1.90619	0
0.99056	1.90513	0
0.99369	1.90409	0
0.99681	1.90307	0
0.99994	1.90206	0
1.01681	1.89694	0
1.02367	1.89498	0
1.03052	1.89310	0
1.03738	1.89128	0
1.04423	1.88952	0
1.05109	1.88783	0
1.05795	1.88618	0
1.06480	1.88460	0
1.07166	1.88306	0
1.07851	1.88157	0
1.08537	1.88013	0
1.09223	1.87873	0
1.09908	1.87737	0
1.10594	1.87606	0
1.11280	1.87478	0
1.11965	1.87354	0
1.12651	1.87234	0
1.13337	1.87117	0
1.14022	1.87003	0
1.14708	1.86892	0
1.15394	1.86784	0
1.16080	1.86679	0
1.16766	1.86577	0
1.17452	1.86478	0
1.18138	1.86381	0
1.18824	1.86287	0
1.19510	1.86195	0
1.20196	1.86105	0
1.20883	1.86017	0
1.21569	1.85932	0
1.22255	1.85848	0
1.22942	1.85767	0
1.23628	1.85688	0
1.24315	1.85610	0
1.25001	1.85534	0
1.25688	1.85460	0
1.26375	1.85388	0
1.27062	1.85317	0
1.27749	1.85248	0
1.28436	1.85180	0
1.29123	1.85114	0
1.29810	1.85049	0
1.30497	1.84986	0
1.31185	1.84924	0
1.31872	1.84863	0
1.32560	1.84803	0
1.33248	1.84745	0
1.33935	1.84688	0
1.34623	1.84632	0
1.35311	1.84577	0
1.36000	1.84523	0
1.36688	1.84471	0
1.37376	1.84419	0
1.38065	1.84368	0
1.38753	1.84319	0
1.39442	1.84270	0
1.40131	1.84222	0
1.40820	1.84175	0
1.41509	1.84129	0
1.42199	1.84084	0
1.42888	1.84039	0
1.43578	1.83996	0
1.44267	1.83953	0
1.44957	1.83911	0
1.45647	1.83870	0
1.46337	1.83829	0
1.47028	1.83789	0
1.47718	1.83750	0
1.48409	1.83712	0
1.49100	1.83674	0
1.49791	1.83637	0
1.50482	1.83600	0
1.51173	1.83564	0
1.51865	1.83529	0
1.52556	1.83494	0
1.53248	1.83460	0
1.53940	1.83427	0
1.54633	1.83393	0
1.55325	1.83361	0
1.56018	1.83329	0
1.56711	1.83297	0
1.57404	1.83266	0
1.58097	1.83236	0
1.58790	1.83206	0
1.59484	1.83176	0
1.60178	1.83147	0
1.60872	1.83118	0
1.61566	1.83090	0
1.62260	1.83062	0
1.62955	1.83035	0
1.63650	1.83008	0
1.64345	1.82981	0
1.65040	1.82955	0
1.65736	1.82929	0
1.66432	1.82904	0
1.67128	1.82879	0
1.67824	1.82854	0
1.68520	1.82830	0
