Material: organic / (C41H53FO4S4)n - PTB7 / Kamptner-e
Optical constants. A. Kamptner, M. C. Scharber, M. Schiek. Accurate determination of the uniaxial complex refractive index and the optical band gap of polymer thin films to correlate their absorption strength and onset of absorption. Chem. Phys. Chem. e202400233 (2024) (Numerical data kindly provided by Manuela Schiek)
Comments: Extraordinary ray (e)
wavelength (um)	n	k
0.19146	1.79018	3.56280E-01
0.19465	1.78839	2.97890E-01
0.19784	1.76043	2.49300E-01
0.20104	1.71967	2.23980E-01
0.20423	1.67872	2.19400E-01
0.20742	1.64103	2.32930E-01
0.21062	1.61277	2.68860E-01
0.21381	1.61409	3.26240E-01
0.21701	1.66047	3.74230E-01
0.22020	1.73120	3.82060E-01
0.22340	1.79077	3.49820E-01
0.22659	1.82553	2.97690E-01
0.22979	1.83394	2.39820E-01
0.23298	1.81775	1.88240E-01
0.23618	1.78330	1.54070E-01
0.23938	1.74529	1.44520E-01
0.24257	1.71784	1.51710E-01
0.24577	1.70409	0.1645
0.24897	1.69971	0.1746
0.25216	1.69910	0.18132
0.25536	1.70021	0.1857
0.25856	1.70230	1.88550E-01
0.26176	1.70514	1.90130E-01
0.26496	1.70839	1.90430E-01
0.26815	1.71154	1.89500E-01
0.27135	1.71385	1.87680E-01
0.27455	1.71503	1.86010E-01
0.27775	1.71550	1.85450E-01
0.28095	1.71626	1.86730E-01
0.28415	1.71912	1.89600E-01
0.28735	1.72492	1.92370E-01
0.29055	1.73337	1.93520E-01
0.29375	1.74359	1.91820E-01
0.29695	1.75393	1.86650E-01
0.30015	1.76301	1.78720E-01
0.30335	1.77030	1.68840E-01
0.30655	1.77557	1.57690E-01
0.30975	1.77877	1.45840E-01
0.31295	1.77996	1.33770E-01
0.31615	1.77925	1.21850E-01
0.31935	1.77679	1.10430E-01
0.32255	1.77278	9.98000E-02
0.32576	1.76747	9.02400E-02
0.32896	1.76120	8.19000E-02
0.33216	1.75430	7.47900E-02
0.33536	1.74697	6.88600E-02
0.33856	1.73938	6.40800E-02
0.34176	1.73170	6.04300E-02
0.34497	1.72411	5.78700E-02
0.34817	1.71682	5.63200E-02
0.35137	1.70999	5.55900E-02
0.35457	1.70367	5.55000E-02
0.35777	1.69789	5.58900E-02
0.36098	1.69264	5.66000E-02
0.36418	1.68788	5.75100E-02
0.36738	1.68350	5.84900E-02
0.37058	1.67940	5.95200E-02
0.37379	1.67552	6.06100E-02
0.37699	1.67183	6.17600E-02
0.38019	1.66828	6.29600E-02
0.38339	1.66486	6.42300E-02
0.38660	1.66155	6.55600E-02
0.38980	1.65831	6.69500E-02
0.39300	1.65511	6.84300E-02
0.39621	1.65195	7.00300E-02
0.39941	1.64881	7.17700E-02
0.40261	1.64573	7.37000E-02
0.40581	1.64272	7.58400E-02
0.40902	1.63981	7.82000E-02
0.41222	1.63704	8.08100E-02
0.41542	1.63448	8.36700E-02
0.41863	1.63224	8.67700E-02
0.42183	1.63037	9.00100E-02
0.42503	1.62888	9.32700E-02
0.42823	1.62777	9.64700E-02
0.43144	1.62700	9.95400E-02
0.43464	1.62652	1.02390E-01
0.43784	1.62625	1.04950E-01
0.44105	1.62612	1.07180E-01
0.44425	1.62603	1.09030E-01
0.44745	1.62580	1.10460E-01
0.45065	1.62525	1.11570E-01
0.45386	1.62429	1.12500E-01
0.45706	1.62290	1.13410E-01
0.46026	1.62108	1.14390E-01
0.46346	1.61883	1.15580E-01
0.46667	1.61621	1.17080E-01
0.46987	1.61326	1.18960E-01
0.47307	1.61004	1.21330E-01
0.47627	1.60666	1.24260E-01
0.47947	1.60321	1.27810E-01
0.48267	1.59985	1.32040E-01
0.48588	1.59675	1.36900E-01
0.48908	1.59402	1.42300E-01
0.49228	1.59172	1.48150E-01
0.49548	1.58989	1.54360E-01
0.49868	1.58855	1.60850E-01
0.50188	1.58772	1.67550E-01
0.50508	1.58739	1.74390E-01
0.50828	1.58756	1.81300E-01
0.51149	1.58820	1.88220E-01
0.51469	1.58928	1.95110E-01
0.51789	1.59077	2.01910E-01
0.52109	1.59262	2.08580E-01
0.52429	1.59475	2.15090E-01
0.52749	1.59706	2.21470E-01
0.53069	1.59954	2.27780E-01
0.53389	1.60216	2.34070E-01
0.53709	1.60492	2.40380E-01
0.54028	1.60785	2.46740E-01
0.54348	1.61095	2.53200E-01
0.54668	1.61426	2.59780E-01
0.54988	1.61782	2.66510E-01
0.55308	1.62167	2.73400E-01
0.55628	1.62585	2.80480E-01
0.55948	1.63041	2.87740E-01
0.56267	1.63543	2.95200E-01
0.56587	1.64097	3.02860E-01
0.56907	1.64712	3.10710E-01
0.57227	1.65401	3.18740E-01
0.57546	1.66181	3.26840E-01
0.57866	1.67062	3.34800E-01
0.58186	1.68043	3.42450E-01
0.58505	1.69121	3.49620E-01
0.58825	1.70290	3.56160E-01
0.59144	1.71543	3.61950E-01
0.59464	1.72870	3.66900E-01
0.59783	1.74263	3.70900E-01
0.60103	1.75710	3.73900E-01
0.60422	1.77203	3.75830E-01
0.60742	1.78729	3.76650E-01
0.61061	1.80278	3.76320E-01
0.61381	1.81840	3.74810E-01
0.61700	1.83404	3.72100E-01
0.62019	1.84958	3.68180E-01
0.62339	1.86491	3.63030E-01
0.62658	1.87990	3.56670E-01
0.62977	1.89441	3.49080E-01
0.63296	1.90827	3.40270E-01
0.63616	1.92125	3.30390E-01
0.63935	1.93325	3.19620E-01
0.64254	1.94423	3.08100E-01
0.64573	1.95416	2.95990E-01
0.64892	1.96304	2.83400E-01
0.65211	1.97086	2.70450E-01
0.65530	1.97764	2.57240E-01
0.65849	1.98340	2.43870E-01
0.66168	1.98816	2.30410E-01
0.66487	1.99195	2.16940E-01
0.66805	1.99480	2.03530E-01
0.67124	1.99674	1.90260E-01
0.67443	1.99780	1.77190E-01
0.67762	1.99802	1.64370E-01
0.68080	1.99744	1.51860E-01
0.68399	1.99611	1.39710E-01
0.68718	1.99405	1.27970E-01
0.69036	1.99132	1.16700E-01
0.69355	1.98796	1.05940E-01
0.69673	1.98404	9.57300E-02
0.69992	1.97961	8.61100E-02
0.70310	1.97475	7.71400E-02
0.70628	1.96953	6.88500E-02
0.70947	1.96409	6.12400E-02
0.71265	1.95850	5.42700E-02
0.71583	1.95282	4.78900E-02
0.71902	1.94709	4.20800E-02
0.72220	1.94136	3.67900E-02
0.72538	1.93566	3.20000E-02
0.72856	1.93001	2.76700E-02
0.73174	1.92443	2.37800E-02
0.73492	1.91895	2.02900E-02
0.73810	1.91359	1.71800E-02
0.74128	1.90835	1.44300E-02
0.74446	1.90325	1.20000E-02
0.74763	1.89830	9.87000E-03
0.75081	1.89351	8.02000E-03
0.75399	1.88889	6.43000E-03
0.75716	1.88444	5.07000E-03
0.76034	1.88017	3.93000E-03
0.76352	1.87607	2.98000E-03
0.76669	1.87215	2.20000E-03
0.76987	1.86842	1.57000E-03
0.77304	1.86486	1.08000E-03
0.77621	1.86148	7.06000E-04
0.77939	1.85828	4.32000E-04
0.78256	1.85525	2.41000E-04
0.78573	1.85238	1.17000E-04
0.78890	1.84968	4.60000E-05
0.79207	1.84713	1.20000E-05
0.79524	1.84472	1.00000E-06
0.79841	1.84244	0
0.80158	1.84027	0
0.80475	1.83821	0
0.80792	1.83624	0
0.81109	1.83434	0
0.81425	1.83253	0
0.81742	1.83078	0
0.82058	1.82910	0
0.82375	1.82748	0
0.82691	1.82591	0
0.83008	1.82440	0
0.83324	1.82295	0
0.83641	1.82153	0
0.83957	1.82017	0
0.84273	1.81884	0
0.84589	1.81756	0
0.84905	1.81631	0
0.85221	1.81510	0
0.85537	1.81393	0
0.85853	1.81278	0
0.86169	1.81167	0
0.86484	1.81059	0
0.86800	1.80954	0
0.87116	1.80852	0
0.87431	1.80752	0
0.87747	1.80655	0
0.88062	1.80560	0
0.88377	1.80468	0
0.88693	1.80377	0
0.89008	1.80289	0
0.89323	1.80204	0
0.89638	1.80120	0
0.89953	1.80038	0
0.90268	1.79957	0
0.90583	1.79879	0
0.90898	1.79802	0
0.91212	1.79727	0
0.91527	1.79654	0
0.91842	1.79582	0
0.92156	1.79512	0
0.92470	1.79443	0
0.92785	1.79376	0
0.93099	1.79310	0
0.93413	1.79245	0
0.93728	1.79181	0
0.94042	1.79119	0
0.94356	1.79058	0
0.94669	1.78999	0
0.94983	1.78940	0
0.95297	1.78882	0
0.95611	1.78826	0
0.95924	1.78770	0
0.96238	1.78716	0
0.96551	1.78663	0
0.96865	1.78610	0
0.97178	1.78559	0
0.97491	1.78508	0
0.97804	1.78458	0
0.98117	1.78409	0
0.98430	1.78361	0
0.98743	1.78314	0
0.99056	1.78268	0
0.99369	1.78222	0
0.99681	1.78177	0
0.99994	1.78133	0
1.01681	1.77906	0
1.02367	1.77820	0
1.03052	1.77736	0
1.03738	1.77654	0
1.04423	1.77576	0
1.05109	1.77500	0
1.05795	1.77426	0
1.06480	1.77354	0
1.07166	1.77285	0
1.07851	1.77218	0
1.08537	1.77152	0
1.09223	1.77089	0
1.09908	1.77027	0
1.10594	1.76967	0
1.11280	1.76908	0
1.11965	1.76852	0
1.12651	1.76796	0
1.13337	1.76743	0
1.14022	1.76690	0
1.14708	1.76639	0
1.15394	1.76590	0
1.16080	1.76541	0
1.16766	1.76494	0
1.17452	1.76448	0
1.18138	1.76403	0
1.18824	1.76359	0
1.19510	1.76316	0
1.20196	1.76274	0
1.20883	1.76234	0
1.21569	1.76194	0
1.22255	1.76155	0
1.22942	1.76117	0
1.23628	1.76080	0
1.24315	1.76043	0
1.25001	1.76008	0
1.25688	1.75973	0
1.26375	1.75939	0
1.27062	1.75905	0
1.27749	1.75873	0
1.28436	1.75841	0
1.29123	1.75810	0
1.29810	1.75779	0
1.30497	1.75749	0
1.31185	1.75720	0
1.31872	1.75691	0
1.32560	1.75663	0
1.33248	1.75635	0
1.33935	1.75608	0
1.34623	1.75581	0
1.35311	1.75555	0
1.36000	1.75529	0
1.36688	1.75504	0
1.37376	1.75480	0
1.38065	1.75456	0
1.38753	1.75432	0
1.39442	1.75408	0
1.40131	1.75386	0
1.40820	1.75363	0
1.41509	1.75341	0
1.42199	1.75320	0
1.42888	1.75298	0
1.43578	1.75277	0
1.44267	1.75257	0
1.44957	1.75237	0
1.45647	1.75217	0
1.46337	1.75197	0
1.47028	1.75178	0
1.47718	1.75159	0
1.48409	1.75141	0
1.49100	1.75123	0
1.49791	1.75105	0
1.50482	1.75087	0
1.51173	1.75070	0
1.51865	1.75053	0
1.52556	1.75036	0
1.53248	1.75019	0
1.53940	1.75003	0
1.54633	1.74987	0
1.55325	1.74971	0
1.56018	1.74956	0
1.56711	1.74941	0
1.57404	1.74926	0
1.58097	1.74911	0
1.58790	1.74896	0
1.59484	1.74882	0
1.60178	1.74868	0
1.60872	1.74854	0
1.61566	1.74840	0
1.62260	1.74827	0
1.62955	1.74813	0
1.63650	1.74800	0
1.64345	1.74787	0
1.65040	1.74774	0
1.65736	1.74762	0
1.66432	1.74750	0
1.67128	1.74737	0
1.67824	1.74725	0
1.68520	1.74713	0
