Material: specs / schott / LF5
Optical constants. SCHOTT Zemax catalog 2017-01-20b (obtained from http://www.schott.com)See also SCHOTT glass data sheets
Comments: lead containing glass type
Conditions: {"temperature": 293}
Properties: {"thermal_dispersion": [{"type": "formula A", "coefficients": "-2.27e-06 9.71e-09 -2.83e-11 8.36e-07 9.95e-10 0.228"}], "nd": 1.58144, "Vd": 40.85, "glass_code": 581409.322, "glass_status": "standard", "density": [{"value": 3220}], "thermal_expansion": [{"temperature_range": "243 343", "value": 9.1e-06}, {"temperature_range": "293 573", "value": 1.06e-05}], "dPgF": -0.0003, "resistance": {"climatic": 2.0, "stain": 0.0, "acid": 1.0, "alkali": 2.3, "phosphate": 2.0}}
Dispersion formula 2, range 0.32 2.325 um, coefficients 0 1.28035628 0.00929854416 0.163505973 0.0449135769 0.893930112 110.493685
wavelength (um)	k
0.320	3.2787E-06
0.334	5.9762E-07
0.350	1.4242E-07
0.365	5.4712E-08
0.370	4.6852E-08
0.380	3.3108E-08
0.390	2.0023E-08
0.400	1.0227E-08
0.405	1.0355E-08
0.420	9.3912E-09
0.436	8.3521E-09
0.460	7.3395E-09
0.500	6.3790E-09
0.546	5.5181E-09
0.580	5.5469E-09
0.620	3.9510E-09
0.660	4.2059E-09
0.700	4.4608E-09
1.060	6.7549E-09
1.530	3.9118E-08
1.970	8.7327E-07
2.325	3.0751E-06
