Material: specs / schott / N-BAF52
Optical constants. SCHOTT Zemax catalog 2017-01-20b (obtained from http://www.schott.com)See also SCHOTT glass data sheets
Conditions: {"temperature": 293}
Properties: {"thermal_dispersion": [{"type": "formula A", "coefficients": "1.15e-06 1.27e-08 -5.08e-12 5.64e-07 6.38e-10 0.238"}], "nd": 1.60863, "Vd": 46.6, "glass_code": 609466.305, "glass_status": "standard", "density": [{"value": 3045}], "thermal_expansion": [{"temperature_range": "243 343", "value": 6.86e-06}, {"temperature_range": "293 573", "value": 7.83e-06}], "dPgF": 0.0024, "resistance": {"climatic": 1.0, "stain": 0.0, "acid": 1.0, "alkali": 1.3, "phosphate": 1.0}}
Dispersion formula 2, range 0.365 2.5 um, coefficients 0 1.43903433 0.00907800128 0.0967046052 0.050821208 1.09875818 105.691856
wavelength (um)	k
0.365	1.8132E-06
0.370	1.1710E-06
0.380	5.2107E-07
0.390	2.7701E-07
0.400	1.6276E-07
0.405	1.3583E-07
0.420	8.5569E-08
0.436	6.5355E-08
0.460	4.9135E-08
0.500	3.2154E-08
0.546	1.9224E-08
0.580	1.8555E-08
0.620	2.1829E-08
0.660	2.1114E-08
0.700	1.5652E-08
1.060	2.0305E-08
1.530	1.2330E-07
1.970	7.3075E-07
2.325	3.4194E-06
2.500	7.4931E-06
