Material: specs / schott / N-BK7HT
Optical constants. SCHOTT Zemax catalog 2017-01-20b (obtained from http://www.schott.com)See also SCHOTT glass data sheets
Comments: step 0.5 available
Conditions: {"temperature": 293}
Properties: {"thermal_dispersion": [{"type": "formula A", "coefficients": "1.86e-06 1.31e-08 -1.37e-11 4.34e-07 6.27e-10 0.17"}], "nd": 1.5168, "Vd": 64.17, "glass_code": 517642.251, "glass_status": "standard", "density": [{"value": 2510}], "thermal_expansion": [{"temperature_range": "243 343", "value": 7.1e-06}, {"temperature_range": "293 573", "value": 8.3e-06}], "dPgF": -0.0009, "resistance": {"climatic": 1.0, "stain": 0.0, "acid": 1.0, "alkali": 2.3, "phosphate": 2.3}}
Dispersion formula 2, range 0.3 2.5 um, coefficients 0 1.03961212 0.00600069867 0.231792344 0.0200179144 1.01046945 103.560653
wavelength (um)	k
0.300	3.6022E-06
0.310	1.4000E-06
0.320	5.2032E-07
0.334	1.4196E-07
0.350	4.0847E-08
0.365	1.7559E-08
0.370	1.3027E-08
0.380	9.7155E-09
0.390	7.4709E-09
0.400	5.1032E-09
0.405	5.1670E-09
0.420	5.3583E-09
0.436	5.5625E-09
0.460	5.8686E-09
0.500	4.7818E-09
0.546	3.4794E-09
0.580	3.6961E-09
0.620	5.9295E-09
0.660	6.3120E-09
0.700	4.4608E-09
1.060	3.3758E-09
1.530	6.3727E-08
1.970	7.4486E-07
2.325	3.1088E-06
2.500	5.6767E-06
