Material: specs / schott / N-KZFS4
Optical constants. SCHOTT Zemax catalog 2017-01-20b (obtained from http://www.schott.com)See also SCHOTT glass data sheets
Comments: suitable for precision molding. step 0.5 available
Conditions: {"temperature": 293}
Properties: {"thermal_dispersion": [{"type": "formula A", "coefficients": "1.81e-06 1.16e-08 -7.99e-12 6.2e-07 7.94e-10 0.205"}], "nd": 1.61336, "Vd": 44.49, "glass_code": 613445.3, "glass_status": "standard", "density": [{"value": 3002}], "thermal_expansion": [{"temperature_range": "243 343", "value": 7.3e-06}, {"temperature_range": "293 573", "value": 8.2e-06}], "dPgF": -0.01, "resistance": {"climatic": 1.0, "stain": 1.0, "acid": 3.4, "alkali": 1.2, "phosphate": 1.0}}
Dispersion formula 2, range 0.334 2.5 um, coefficients 0 1.35055424 0.0087628207 0.197575506 0.0371767201 1.09962992 90.3866994
wavelength (um)	k
0.334	2.0169E-06
0.350	5.6910E-07
0.365	2.3057E-07
0.370	1.7763E-07
0.380	1.1408E-07
0.390	9.0090E-08
0.400	6.7992E-08
0.405	6.3414E-08
0.420	5.3183E-08
0.436	4.5137E-08
0.460	3.5570E-08
0.500	2.0826E-08
0.546	1.3960E-08
0.580	1.2969E-08
0.620	1.5852E-08
0.660	1.4758E-08
0.700	1.3409E-08
1.060	1.3523E-08
1.530	1.9374E-07
1.970	7.9448E-07
2.325	5.3400E-06
2.500	1.3385E-05
