Material: specs / schott / N-LAF32
Optical constants. SCHOTT Zemax catalog 2017-01-20b (obtained from http://www.schott.com)See also SCHOTT glass data sheets
Conditions: {"temperature": 293}
Properties: {"thermal_dispersion": [{"type": "formula A", "coefficients": "3.8e-06 1.1e-08 -1.83e-11 6.37e-07 8.03e-10 0.196"}], "nd": 1.79457, "Vd": 45.53, "glass_code": 795455.433, "glass_status": "preferred", "density": [{"value": 4325}], "thermal_expansion": [{"temperature_range": "243 343", "value": 5.89e-06}, {"temperature_range": "293 573", "value": 6.98e-06}], "dPgF": -0.0075, "resistance": {"climatic": 1.0, "stain": 1.0, "acid": 51.2, "alkali": 1.0, "phosphate": 2.0}}
Dispersion formula 2, range 0.35 2.5 um, coefficients 0 1.91731106 0.00978600358 0.224019825 0.0386141473 1.22087075 84.6431265
wavelength (um)	k
0.350	2.8139E-06
0.365	1.1552E-06
0.370	8.6443E-07
0.380	4.8441E-07
0.390	2.9263E-07
0.400	1.9203E-07
0.405	1.6480E-07
0.420	1.0278E-07
0.436	7.2648E-08
0.460	4.6109E-08
0.500	1.9214E-08
0.546	1.0459E-08
0.580	1.2969E-08
0.620	1.3863E-08
0.660	1.2643E-08
0.700	1.1169E-08
1.060	2.3702E-08
1.530	1.6847E-07
1.970	9.4577E-07
2.325	6.0758E-06
2.500	1.6873E-05
