Material: specs / schott / N-PK51
Optical constants. SCHOTT Zemax catalog 2017-01-20b (obtained from http://www.schott.com)See also SCHOTT glass data sheets
Comments: suitable for precision molding. step 0.5 available
Conditions: {"temperature": 293}
Properties: {"thermal_dispersion": [{"type": "formula A", "coefficients": "-1.98e-05 -6.06e-09 1.6e-11 4.16e-07 5.01e-10 0.134"}], "nd": 1.52855, "Vd": 76.98, "glass_code": 529770.386, "glass_status": "standard", "density": [{"value": 3855}], "thermal_expansion": [{"temperature_range": "243 343", "value": 1.235e-05}, {"temperature_range": "293 573", "value": 1.412e-05}], "dPgF": 0.0258, "resistance": {"climatic": 1.0, "stain": 0.0, "acid": 52.3, "alkali": 3.3, "phosphate": 4.3}}
Dispersion formula 2, range 0.3 2.5 um, coefficients 0 1.15610775 0.00585597402 0.153229344 0.0194072416 0.785618966 140.537046
wavelength (um)	k
0.300	3.7357E-06
0.310	2.2721E-06
0.320	1.2966E-06
0.334	5.4309E-07
0.350	1.9424E-07
0.365	7.1889E-08
0.370	5.4228E-08
0.380	3.3108E-08
0.390	2.0023E-08
0.400	1.7951E-08
0.405	1.8176E-08
0.420	2.1563E-08
0.436	2.2385E-08
0.460	1.7677E-08
0.500	1.1180E-08
0.546	6.9658E-09
0.580	9.2541E-09
0.620	1.5852E-08
0.660	1.8993E-08
0.700	1.7897E-08
1.060	2.0305E-08
1.530	7.3606E-08
1.970	3.8800E-07
2.325	1.1162E-06
2.500	1.6769E-06
