Material: specs / schott / N-SF19
Optical constants. SCHOTT Zemax catalog 2017-01-20b (obtained from http://www.schott.com)See also SCHOTT glass data sheets
Comments: inquiry glass
Conditions: {"temperature": 293}
Properties: {"thermal_dispersion": [{"type": "formula A", "coefficients": "1.32e-06 1.22e-08 -1.36e-11 7.64e-07 1.09e-09 0.279"}], "nd": 1.66679, "Vd": 33.12, "glass_code": 667331.29, "glass_status": "special", "density": [{"value": 2900}], "thermal_expansion": [{"temperature_range": "243 343", "value": 7.2e-06}, {"temperature_range": "293 573", "value": 8.3e-06}], "dPgF": 0.0095, "resistance": {"climatic": 1.0, "stain": 0.0, "acid": 1.0, "alkali": 1.2, "phosphate": 1.0}}
Dispersion formula 2, range 0.37 2.5 um, coefficients 0 1.52005444 0.01096144 0.17573947 0.0593248486 1.43623424 126.795151
wavelength (um)	k
0.370	3.5282E-06
0.380	1.3410E-06
0.390	5.9344E-07
0.400	3.3278E-07
0.405	2.7165E-07
0.420	1.7090E-07
0.436	1.2328E-07
0.460	9.5280E-08
0.500	6.4970E-08
0.546	4.0440E-08
0.580	3.7298E-08
0.620	4.3902E-08
0.660	4.2443E-08
0.700	3.3676E-08
1.060	3.7321E-08
1.530	1.4834E-07
1.970	7.3075E-07
2.325	3.5378E-06
2.500	6.5332E-06
