Material: specs / schott / N-SF5
Optical constants. SCHOTT Zemax catalog 2017-01-20b (obtained from http://www.schott.com)See also SCHOTT glass data sheets
Comments: step 0.5 available
Conditions: {"temperature": 293}
Properties: {"thermal_dispersion": [{"type": "formula A", "coefficients": "-2.51e-07 1.07e-08 -2.4e-11 7.85e-07 1.15e-09 0.278"}], "nd": 1.67271, "Vd": 32.25, "glass_code": 673323.286, "glass_status": "standard", "density": [{"value": 2858}], "thermal_expansion": [{"temperature_range": "243 343", "value": 7.94e-06}, {"temperature_range": "293 573", "value": 9.21e-06}], "dPgF": 0.0088, "resistance": {"climatic": 1.0, "stain": 0.0, "acid": 1.0, "alkali": 1.0, "phosphate": 1.0}}
Dispersion formula 2, range 0.37 2.5 um, coefficients 0 1.52481889 0.011254756 0.187085527 0.0588995392 1.42729015 129.141675
wavelength (um)	k
0.370	3.7910E-06
0.380	1.3410E-06
0.390	5.9344E-07
0.400	3.1635E-07
0.405	2.4021E-07
0.420	1.2608E-07
0.436	9.3274E-08
0.460	6.5886E-08
0.500	3.8663E-08
0.546	2.0982E-08
0.580	1.6691E-08
0.620	2.3825E-08
0.660	2.7490E-08
0.700	2.4646E-08
1.060	2.0305E-08
1.530	1.2330E-07
1.970	8.0161E-07
2.325	3.4194E-06
2.500	5.5159E-06
