Material: specs / schott / P-LASF47
Optical constants. SCHOTT Zemax catalog 2017-01-20b (obtained from http://www.schott.com)See also SCHOTT glass data sheets
Comments: suitable for precision molding
Conditions: {"temperature": 293}
Properties: {"thermal_dispersion": [{"type": "formula A", "coefficients": "7.87e-06 1.09e-08 -1.56e-11 7.58e-07 8.92e-10 0.218"}], "nd": 1.8061, "Vd": 40.9, "glass_code": 806409.454, "glass_status": "standard", "density": [{"value": 4538}], "thermal_expansion": [{"temperature_range": "243 343", "value": 6.04e-06}, {"temperature_range": "293 573", "value": 7.27e-06}], "dPgF": -0.0079, "resistance": {"climatic": 1.0, "stain": 1.0, "acid": 51.4, "alkali": 1.0, "phosphate": 2.2}}
Dispersion formula 2, range 0.334 2.5 um, coefficients 0 1.85543101 0.0100328203 0.315854649 0.0387095168 1.28561839 94.5421507
wavelength (um)	k
0.334	3.7280E-06
0.350	1.1696E-06
0.365	5.0050E-07
0.370	3.8689E-07
0.380	2.2538E-07
0.390	1.4467E-07
0.400	1.0616E-07
0.405	9.3555E-08
0.420	6.8574E-08
0.436	5.2324E-08
0.460	3.7071E-08
0.500	1.9214E-08
0.546	1.0459E-08
0.580	1.1111E-08
0.620	9.8924E-09
0.660	1.0531E-08
0.700	8.9305E-09
1.060	6.7549E-09
1.530	9.3423E-08
1.970	8.0161E-07
2.325	4.6985E-06
2.500	1.2807E-05
