Material: specs / schott / SF11
Optical constants. SCHOTT Zemax catalog 2017-01-20b (obtained from http://www.schott.com)See also SCHOTT glass data sheets
Comments: lead containing
Conditions: {"temperature": 293}
Properties: {"thermal_dispersion": [{"type": "formula A", "coefficients": "1.12e-05 1.81e-08 -5.03e-11 1.46e-06 1.58e-09 0.282"}], "nd": 1.78472, "Vd": 25.76, "glass_code": 785258.474, "glass_status": "standard", "density": [{"value": 4740}], "thermal_expansion": [{"temperature_range": "243 343", "value": 6.1e-06}, {"temperature_range": "293 573", "value": 6.8e-06}], "dPgF": 0.0142, "resistance": {"climatic": 1.0, "stain": 0.0, "acid": 1.0, "alkali": 1.2, "phosphate": 1.0}}
Dispersion formula 2, range 0.39 2.5 um, coefficients 0 1.73848403 0.0136068604 0.311168974 0.0615960463 1.17490871 121.922711
wavelength (um)	k
0.390	5.7169E-06
0.400	2.0492E-06
0.405	1.3908E-06
0.420	4.7684E-07
0.436	2.0932E-07
0.460	9.0600E-08
0.500	3.8663E-08
0.546	1.9224E-08
0.580	1.6691E-08
0.620	1.7842E-08
0.660	1.8993E-08
0.700	1.5652E-08
1.060	1.0137E-08
1.530	8.8461E-08
1.970	4.5507E-07
2.325	2.6396E-06
2.500	3.9335E-06
