Material: specs / schott / SF15
Optical constants. SCHOTT Zemax catalog 2017-01-20b (obtained from http://www.schott.com)See also SCHOTT glass data sheets
Comments: was replaced by N-SF15
Conditions: {"temperature": 293}
Properties: {"thermal_dispersion": [{"type": "formula A", "coefficients": "2.91e-06 1.69e-08 -3.77e-11 1.1e-06 1.07e-09 0.278"}], "nd": 1.69895, "Vd": 30.07, "glass_code": 699301.406, "glass_status": "preferred", "density": [{"value": 4059}], "thermal_expansion": [{"temperature_range": "243 343", "value": 7.9e-06}, {"temperature_range": "293 573", "value": 8.9e-06}], "dPgF": 0.0066, "resistance": {"climatic": 1.0, "stain": 0.0, "acid": 1.0, "alkali": 1.2, "phosphate": 2.3}}
Dispersion formula 2, range 0.37 2.5 um, coefficients 0 1.53925927 0.0119307961 0.247620926 0.0556077536 1.03816409 116.416747
wavelength (um)	k
0.370	5.4237E-06
0.380	1.9467E-06
0.390	7.1979E-07
0.400	3.1635E-07
0.405	2.0951E-07
0.420	8.2721E-08
0.436	4.9445E-08
0.460	2.9581E-08
0.500	1.5996E-08
0.546	1.0459E-08
0.580	9.2541E-09
0.620	1.1877E-08
0.660	1.4758E-08
0.700	1.1169E-08
1.060	1.0137E-08
1.530	6.3727E-08
1.970	5.9139E-07
2.325	2.1291E-06
2.500	3.1869E-06
