Material: specs / schott / SFL6
Optical constants. SCHOTT Zemax catalog 2017-01-20b (obtained from http://www.schott.com)See also SCHOTT glass data sheets
Comments: inquiry glass
Conditions: {"temperature": 293}
Properties: {"thermal_dispersion": [{"type": "formula A", "coefficients": "-5.26e-06 7.41e-09 -1.89e-11 1.02e-06 1.62e-09 0.288"}], "nd": 1.80518, "Vd": 25.39, "glass_code": 805254.337, "glass_status": "special", "density": [{"value": 3370}], "thermal_expansion": [{"temperature_range": "243 343", "value": "9e-06"}, {"temperature_range": "293 573", "value": 1.03e-05}], "dPgF": 0.0148, "resistance": {"climatic": 1.0, "stain": 0.0, "acid": 2.0, "alkali": 1.0, "phosphate": 1.0}}
Dispersion formula 2, range 0.37 2.325 um, coefficients 0 1.78922056 0.0135163537 0.328427448 0.0622729599 2.01639441 168.014713
wavelength (um)	k
0.370	4.6074E-06
0.380	1.6768E-06
0.390	8.1179E-07
0.400	5.0990E-07
0.405	4.2349E-07
0.420	2.8171E-07
0.436	2.0932E-07
0.460	1.5427E-07
0.500	9.8478E-08
0.546	5.2937E-08
0.580	3.7298E-08
0.620	3.3838E-08
0.660	2.5363E-08
0.700	2.4646E-08
1.060	4.0734E-08
1.530	2.4412E-08
1.970	3.2165E-07
2.325	1.2903E-06
