Material: main / WS2 / Vyshnevyy-e
Optical constants. A. A. Vyshnevyy, G. A. Ermolaev, D. V. Grudinin, K. V. Voronin, I. Kharichkin, A. Mazitov, I. A. Kruglov, D. I. Yakubovky, P. Mishra, R. V. Kirtaev, A. V. Arsenin, K. S. Novoselov, L. Martin-Moreno, V. S. Volkov. Van der Waals Materials for overcoming fundamental limitations in photonic integrated circuitry, Nano Lett., 23, 8057â€“8064 (2023) (Numerical data kindly provided by Georgy Ermolaev)
Comments: Bulk WS2. Extraordinary ray (e).
wavelength (um)	n	k
0.360	3.41472	0
0.364	3.38348	0
0.368	3.35366	0
0.372	3.32515	0
0.376	3.29789	0
0.380	3.27181	0
0.384	3.24684	0
0.388	3.22293	0
0.392	3.20001	0
0.396	3.17803	0
0.400	3.15694	0
0.404	3.13670	0
0.408	3.11726	0
0.412	3.09858	0
0.416	3.08062	0
0.420	3.06335	0
0.424	3.04674	0
0.428	3.03074	0
0.432	3.01533	0
0.436	3.00049	0
0.440	2.98618	0
0.444	2.97238	0
0.448	2.95907	0
0.452	2.94622	0
0.456	2.93382	0
0.460	2.92184	0
0.464	2.91026	0
0.468	2.89907	0
0.472	2.88825	0
0.476	2.87779	0
0.480	2.86766	0
0.484	2.85786	0
0.488	2.84837	0
0.492	2.83918	0
0.496	2.83028	0
0.500	2.82165	0
0.504	2.81328	0
0.508	2.80516	0
0.512	2.79729	0
0.516	2.78965	0
0.520	2.78223	0
0.524	2.77503	0
0.528	2.76804	0
0.532	2.76124	0
0.536	2.75464	0
0.540	2.74822	0
0.544	2.74198	0
0.548	2.73591	0
0.552	2.73001	0
0.556	2.72426	0
0.560	2.71867	0
0.564	2.71323	0
0.568	2.70793	0
0.572	2.70277	0
0.576	2.69774	0
0.580	2.69284	0
0.584	2.68807	0
0.588	2.68341	0
0.592	2.67887	0
0.596	2.67445	0
0.600	2.67013	0
0.604	2.66591	0
0.608	2.66180	0
0.612	2.65779	0
0.616	2.65387	0
0.620	2.65005	0
0.624	2.64631	0
0.628	2.64266	0
0.632	2.63910	0
0.636	2.63562	0
0.640	2.63221	0
0.644	2.62888	0
0.648	2.62563	0
0.652	2.62245	0
0.656	2.61934	0
0.660	2.61629	0
0.664	2.61331	0
0.668	2.61040	0
0.672	2.60755	0
0.676	2.60476	0
0.680	2.60202	0
0.684	2.59935	0
0.688	2.59673	0
0.692	2.59416	0
0.696	2.59165	0
0.700	2.58918	0
0.704	2.58677	0
0.708	2.58441	0
0.712	2.58209	0
0.716	2.57982	0
0.720	2.57759	0
0.724	2.57541	0
0.728	2.57326	0
0.732	2.57116	0
0.736	2.56910	0
0.740	2.56708	0
0.744	2.56510	0
0.748	2.56315	0
0.752	2.56124	0
0.756	2.55937	0
0.760	2.55753	0
0.764	2.55572	0
0.768	2.55395	0
0.772	2.55220	0
0.776	2.55049	0
0.780	2.54881	0
0.784	2.54716	0
0.788	2.54554	0
0.792	2.54395	0
0.796	2.54238	0
0.800	2.54084	0
0.804	2.53933	0
0.808	2.53784	0
0.812	2.53638	0
0.816	2.53495	0
0.820	2.53353	0
0.824	2.53215	0
0.828	2.53078	0
0.832	2.52944	0
0.836	2.52812	0
0.840	2.52682	0
0.844	2.52554	0
0.848	2.52428	0
0.852	2.52304	0
0.856	2.52182	0
0.860	2.52062	0
0.864	2.51944	0
0.868	2.51828	0
0.872	2.51714	0
0.876	2.51601	0
0.880	2.51490	0
0.884	2.51381	0
0.888	2.51274	0
0.892	2.51168	0
0.896	2.51064	0
0.900	2.50961	0
0.904	2.50860	0
0.908	2.50760	0
0.912	2.50662	0
0.916	2.50565	0
0.920	2.50470	0
0.924	2.50376	0
0.928	2.50283	0
0.932	2.50192	0
0.936	2.50102	0
0.940	2.50013	0
0.944	2.49926	0
0.948	2.49840	0
0.952	2.49755	0
0.956	2.49671	0
0.960	2.49588	0
0.964	2.49507	0
0.968	2.49427	0
0.972	2.49347	0
0.976	2.49269	0
0.980	2.49192	0
0.984	2.49116	0
0.988	2.49041	0
0.992	2.48967	0
0.996	2.48894	0
1.000	2.48822	0
1.004	2.48751	0
1.008	2.48680	0
1.012	2.48611	0
1.016	2.48543	0
1.020	2.48475	0
1.024	2.48409	0
1.028	2.48343	0
1.032	2.48278	0
1.036	2.48214	0
1.040	2.48151	0
1.044	2.48088	0
1.048	2.48027	0
1.052	2.47966	0
1.056	2.47905	0
1.060	2.47846	0
1.064	2.47787	0
1.068	2.47729	0
1.072	2.47672	0
1.076	2.47616	0
1.080	2.47560	0
1.084	2.47505	0
1.088	2.47450	0
1.092	2.47396	0
1.096	2.47343	0
1.100	2.47290	0
1.104	2.47238	0
1.108	2.47187	0
1.112	2.47136	0
1.116	2.47086	0
1.120	2.47036	0
1.124	2.46987	0
1.128	2.46939	0
1.132	2.46891	0
1.136	2.46844	0
1.140	2.46797	0
1.144	2.46751	0
1.148	2.46705	0
1.152	2.46660	0
1.156	2.46615	0
1.160	2.46571	0
1.164	2.46527	0
1.168	2.46484	0
1.172	2.46441	0
1.176	2.46399	0
1.180	2.46357	0
1.184	2.46316	0
1.188	2.46275	0
1.192	2.46234	0
1.196	2.46194	0
1.200	2.46155	0
1.204	2.46115	0
1.208	2.46077	0
1.212	2.46038	0
1.216	2.46000	0
1.220	2.45963	0
1.224	2.45926	0
1.228	2.45889	0
1.232	2.45852	0
1.236	2.45816	0
1.240	2.45781	0
1.244	2.45746	0
1.248	2.45711	0
1.252	2.45676	0
1.256	2.45642	0
1.260	2.45608	0
1.264	2.45575	0
1.268	2.45542	0
1.272	2.45509	0
1.276	2.45476	0
1.280	2.45444	0
1.284	2.45412	0
1.288	2.45381	0
1.292	2.45350	0
1.296	2.45319	0
1.300	2.45288	0
1.304	2.45258	0
1.308	2.45228	0
1.312	2.45198	0
1.316	2.45169	0
1.320	2.45139	0
1.324	2.45111	0
1.328	2.45082	0
1.332	2.45054	0
1.336	2.45026	0
1.340	2.44998	0
1.344	2.44970	0
1.348	2.44943	0
1.352	2.44916	0
1.356	2.44889	0
1.360	2.44863	0
1.364	2.44837	0
1.368	2.44811	0
1.372	2.44785	0
1.376	2.44760	0
1.380	2.44734	0
1.384	2.44709	0
1.388	2.44684	0
1.392	2.44660	0
1.396	2.44635	0
1.400	2.44611	0
1.404	2.44587	0
1.408	2.44564	0
1.412	2.44540	0
1.416	2.44517	0
1.420	2.44494	0
1.424	2.44471	0
1.428	2.44448	0
1.432	2.44426	0
1.436	2.44404	0
1.440	2.44381	0
1.444	2.44360	0
1.448	2.44338	0
1.452	2.44316	0
1.456	2.44295	0
1.460	2.44274	0
1.464	2.44253	0
1.468	2.44232	0
1.472	2.44212	0
1.476	2.44191	0
1.480	2.44171	0
1.484	2.44151	0
1.488	2.44131	0
1.492	2.44111	0
1.496	2.44092	0
1.500	2.44072	0
1.504	2.44053	0
1.508	2.44034	0
1.512	2.44015	0
1.516	2.43996	0
1.520	2.43978	0
1.524	2.43959	0
1.528	2.43941	0
1.532	2.43923	0
1.536	2.43905	0
1.540	2.43887	0
1.544	2.43869	0
1.548	2.43852	0
1.552	2.43834	0
1.556	2.43817	0
1.560	2.43800	0
1.564	2.43783	0
1.568	2.43766	0
1.572	2.43749	0
1.576	2.43733	0
1.580	2.43716	0
1.584	2.43700	0
1.588	2.43684	0
1.592	2.43668	0
1.596	2.43652	0
1.600	2.43636	0
1.604	2.43620	0
1.608	2.43605	0
1.612	2.43589	0
1.616	2.43574	0
1.620	2.43559	0
1.624	2.43544	0
1.628	2.43529	0
1.632	2.43514	0
1.636	2.43499	0
1.640	2.43484	0
1.644	2.43470	0
1.648	2.43455	0
1.652	2.43441	0
1.656	2.43427	0
1.660	2.43413	0
1.664	2.43399	0
1.668	2.43385	0
1.672	2.43371	0
1.676	2.43357	0
1.680	2.43344	0
1.684	2.43330	0
1.688	2.43317	0
1.692	2.43304	0
1.696	2.43290	0
1.700	2.43277	0
