Material: isuzu / filter / IEB400
Optical constants. Data kindly provided by Koichiro Ikeda, ISUZU GLASS LTD. Nov 2024. See also Isuzu Glass Products
Comments: Blue filter (IEB, IVB series).
wavelength (um)	n	k
0.200	-5.77532	1.10E-04
0.205	1.54282	1.15E-04
0.210	1.57475	1.18E-04
0.215	1.89997	1.20E-04
0.220	1.85333	1.26E-04
0.225	1.59219	1.31E-04
0.230	1.64123	1.35E-04
0.235	1.64331	1.37E-04
0.240	1.59042	1.42E-04
0.245	1.59762	1.47E-04
0.250	1.59513	1.53E-04
0.255	1.57252	1.58E-04
0.260	1.58253	1.63E-04
0.265	1.59057	1.69E-04
0.270	1.57245	1.74E-04
0.275	1.57483	1.80E-04
0.280	1.57601	1.86E-04
0.285	1.56686	1.93E-04
0.290	1.56836	1.97E-04
0.295	1.56858	1.81E-04
0.300	1.56231	1.33E-04
0.305	1.55241	9.42E-05
0.310	1.55052	6.53E-05
0.315	1.55429	4.55E-05
0.320	1.55391	3.21E-05
0.325	1.55173	2.27E-05
0.330	1.54736	1.63E-05
0.335	1.54229	1.21E-05
0.340	1.54841	8.88E-06
0.345	1.55444	6.81E-06
0.350	1.54305	5.46E-06
0.355	1.54660	4.43E-06
0.360	1.54524	3.69E-06
0.365	1.54403	3.16E-06
0.370	1.54282	2.82E-06
0.375	1.54441	2.48E-06
0.380	1.53986	2.31E-06
0.385	1.54267	2.10E-06
0.390	1.53850	1.96E-06
0.395	1.53842	1.93E-06
0.400	1.53637	1.99E-06
0.405	1.53667	2.13E-06
0.410	1.53758	2.26E-06
0.415	1.53477	2.52E-06
0.420	1.53492	2.81E-06
0.425	1.53401	3.23E-06
0.430	1.53348	3.76E-06
0.435	1.53424	4.36E-06
0.440	1.53348	5.06E-06
0.445	1.53149	5.95E-06
0.450	1.53157	7.12E-06
0.455	1.53210	8.46E-06
0.460	1.53058	1.03E-05
0.465	1.53050	1.28E-05
0.470	1.52981	1.64E-05
0.475	1.52928	2.08E-05
0.480	1.52859	2.61E-05
0.485	1.52714	3.23E-05
0.490	1.52828	3.90E-05
0.495	1.52706	4.57E-05
0.500	1.52599	5.24E-05
0.505	1.52599	6.08E-05
0.510	1.52599	7.06E-05
0.515	1.52576	8.03E-05
0.520	1.52492	9.08E-05
0.525	1.52453	1.02E-04
0.530	1.52453	1.12E-04
0.535	1.52430	1.17E-04
0.540	1.52461	1.18E-04
0.545	1.52315	1.14E-04
0.550	1.52323	1.07E-04
0.555	1.52323	1.01E-04
0.560	1.52261	1.00E-04
0.565	1.52261	1.05E-04
0.570	1.52223	1.16E-04
0.575	1.52238	1.33E-04
0.580	1.52146	1.55E-04
0.585	1.52161	1.80E-04
0.590	1.52077	1.98E-04
0.595	1.52177	2.05E-04
0.600	1.52169	2.04E-04
0.605	1.52146	2.02E-04
0.610	1.52154	2.02E-04
0.615	1.52054	2.03E-04
0.620	1.52123	2.05E-04
0.625	1.51992	2.10E-04
0.630	1.52077	2.17E-04
0.635	1.52038	2.24E-04
0.640	1.52069	2.30E-04
0.645	1.52054	2.32E-04
0.650	1.51992	2.30E-04
0.655	1.52031	2.22E-04
0.660	1.52023	2.09E-04
0.665	1.51885	1.93E-04
0.670	1.51831	1.72E-04
0.675	1.51823	1.50E-04
0.680	1.51808	1.27E-04
0.685	1.51730	1.06E-04
0.690	1.51761	8.94E-05
0.695	1.51792	7.65E-05
0.700	1.51769	6.77E-05
0.705	1.51777	6.20E-05
0.710	1.51846	5.84E-05
0.715	1.51746	5.65E-05
0.720	1.51684	5.55E-05
0.725	1.51792	5.51E-05
0.730	1.51730	5.51E-05
0.735	1.51777	5.54E-05
0.740	1.51808	5.57E-05
0.745	1.51715	5.62E-05
0.750	1.51808	5.67E-05
0.755	1.51692	5.72E-05
0.760	1.52023	5.76E-05
0.765	1.51607	5.81E-05
0.770	1.51761	5.84E-05
0.775	1.51900	5.87E-05
0.780	1.51946	5.90E-05
0.785	1.51823	5.93E-05
0.790	1.51561	5.95E-05
0.795	1.51854	5.96E-05
0.800	1.51707	5.97E-05
0.805	1.51815	5.98E-05
0.810	1.51962	5.98E-05
0.815	1.51545	5.99E-05
0.820	1.51730	5.99E-05
0.825	1.51815	5.98E-05
0.830	1.51676	5.97E-05
0.835	1.51777	5.96E-05
0.840	1.52185	5.93E-05
0.845	1.51375	5.95E-05
0.850	1.51877	5.85E-05
0.855	1.51445	5.82E-05
0.860	1.51344	5.81E-05
0.865	1.51514	5.76E-05
0.870	1.51290	5.73E-05
0.875	1.51406	5.70E-05
0.880	1.51522	5.66E-05
0.885	1.51205	5.63E-05
0.890	1.51653	5.58E-05
0.895	1.51568	5.55E-05
0.900	1.51368	5.51E-05
0.905	1.51429	5.47E-05
0.910	1.51676	5.42E-05
0.915	1.51700	5.37E-05
0.920	1.51553	5.34E-05
0.925	1.51607	5.29E-05
0.930	1.51646	5.25E-05
0.935	1.51615	5.20E-05
0.940	1.51507	5.16E-05
0.945	1.51584	5.11E-05
0.950	1.51437	5.08E-05
0.955	1.51352	5.03E-05
0.960	1.51514	4.99E-05
0.965	1.51422	4.96E-05
0.970	1.51638	4.90E-05
0.975	1.51406	4.87E-05
0.980	1.51283	4.83E-05
0.985	1.51545	4.80E-05
0.990	1.51437	4.76E-05
0.995	1.51437	4.74E-05
1.000	1.51414	4.71E-05
1.005	1.51383	4.68E-05
1.010	1.51283	4.67E-05
1.015	1.51375	4.64E-05
1.020	1.51545	4.62E-05
1.025	1.51197	4.63E-05
1.030	1.51344	4.60E-05
1.035	1.51275	4.61E-05
1.040	1.51399	4.60E-05
1.045	1.51337	4.61E-05
1.050	1.51476	4.62E-05
1.055	1.51290	4.63E-05
1.060	1.51329	4.64E-05
1.065	1.51120	4.69E-05
1.070	1.51337	4.72E-05
1.075	1.51174	4.75E-05
1.080	1.51267	4.80E-05
1.085	1.51120	4.85E-05
1.090	1.51105	4.90E-05
1.095	1.51298	4.97E-05
1.100	1.51221	5.03E-05
1.105	1.51128	5.12E-05
1.110	1.51128	5.20E-05
1.115	1.51190	5.30E-05
1.120	1.51244	5.38E-05
1.125	1.51151	5.49E-05
1.130	1.51143	5.60E-05
1.135	1.51081	5.73E-05
1.140	1.51244	5.84E-05
1.145	1.50996	5.98E-05
1.150	1.50934	6.11E-05
1.155	1.51012	6.25E-05
1.160	1.50957	6.39E-05
1.165	1.51128	6.54E-05
1.170	1.51190	6.69E-05
1.175	1.50973	6.86E-05
1.180	1.51159	7.01E-05
1.185	1.51128	7.17E-05
1.190	1.51058	7.33E-05
1.195	1.51019	7.51E-05
1.200	1.51128	7.65E-05
1.205	1.51012	7.81E-05
1.210	1.51050	7.96E-05
1.215	1.50888	8.12E-05
1.220	1.51019	8.26E-05
1.225	1.50942	8.40E-05
1.230	1.50981	8.54E-05
1.235	1.50981	8.67E-05
1.240	1.50926	8.78E-05
1.245	1.51050	8.88E-05
1.250	1.50973	8.96E-05
1.255	1.50981	9.05E-05
1.260	1.51050	9.13E-05
1.265	1.50825	9.19E-05
1.270	1.51012	9.23E-05
1.275	1.50950	9.26E-05
1.280	1.50888	9.27E-05
1.285	1.50756	9.28E-05
1.290	1.50957	9.28E-05
1.295	1.50895	9.25E-05
1.300	1.50833	9.23E-05
1.305	1.51043	9.18E-05
1.310	1.50856	9.14E-05
1.315	1.50678	9.09E-05
1.320	1.50950	9.02E-05
1.325	1.50724	8.97E-05
1.330	1.50965	8.91E-05
1.335	1.50717	8.85E-05
1.340	1.50841	8.79E-05
1.345	1.50787	8.75E-05
1.350	1.50888	8.70E-05
1.355	1.50756	8.68E-05
1.360	1.50732	8.65E-05
1.365	1.50787	8.64E-05
1.370	1.50717	8.64E-05
1.375	1.50849	8.65E-05
1.380	1.50662	8.68E-05
1.385	1.50647	8.72E-05
1.390	1.50577	8.77E-05
1.395	1.50732	8.83E-05
1.400	1.50717	8.88E-05
1.405	1.50810	8.98E-05
1.410	1.50748	9.06E-05
1.415	1.50763	9.16E-05
1.420	1.50748	9.25E-05
1.425	1.50678	9.36E-05
1.430	1.50709	9.47E-05
1.435	1.50569	9.58E-05
1.440	1.50670	9.68E-05
1.445	1.50647	9.79E-05
1.450	1.50678	9.88E-05
1.455	1.50763	9.99E-05
1.460	1.50608	1.01E-04
1.465	1.50717	1.02E-04
1.470	1.50670	1.03E-04
1.475	1.50647	1.03E-04
1.480	1.50592	1.04E-04
1.485	1.50740	1.04E-04
1.490	1.50585	1.04E-04
1.495	1.50678	1.05E-04
1.500	1.50639	1.05E-04
1.505	1.50647	1.05E-04
1.510	1.50701	1.05E-04
1.515	1.50678	1.05E-04
1.520	1.50569	1.04E-04
1.525	1.50577	1.04E-04
1.530	1.50678	1.04E-04
1.535	1.50631	1.03E-04
1.540	1.50546	1.02E-04
1.545	1.50569	1.02E-04
1.550	1.50585	1.01E-04
1.555	1.50515	1.00E-04
1.560	1.50491	9.97E-05
1.565	1.50600	9.90E-05
1.570	1.50600	9.83E-05
1.575	1.50592	9.76E-05
1.580	1.50522	9.70E-05
1.585	1.50600	9.62E-05
1.590	1.50553	9.56E-05
1.595	1.50522	9.50E-05
1.600	1.50647	9.46E-05
1.605	1.50592	9.41E-05
1.610	1.50600	9.37E-05
1.615	1.50522	9.34E-05
1.620	1.50483	9.32E-05
1.625	1.50538	9.30E-05
1.630	1.50468	9.29E-05
1.635	1.50522	9.29E-05
1.640	1.50452	9.29E-05
1.645	1.50483	9.32E-05
1.650	1.50320	9.34E-05
1.655	1.50499	9.36E-05
1.660	1.50343	9.40E-05
1.665	1.50585	9.42E-05
1.670	1.50382	9.48E-05
1.675	1.50312	9.52E-05
1.680	1.50561	9.56E-05
1.685	1.50304	9.62E-05
1.690	1.50437	9.67E-05
1.695	1.50499	9.72E-05
1.700	1.50367	9.78E-05
1.705	1.50445	9.82E-05
1.710	1.50429	9.89E-05
1.715	1.50468	9.92E-05
1.720	1.50437	9.97E-05
1.725	1.50320	1.00E-04
1.730	1.50195	1.01E-04
1.735	1.50258	1.01E-04
1.740	1.50297	1.01E-04
1.745	1.50304	1.01E-04
1.750	1.50320	1.01E-04
1.755	1.50343	1.01E-04
1.760	1.50343	1.01E-04
1.765	1.50234	1.01E-04
1.770	1.50468	1.01E-04
1.775	1.50219	1.00E-04
1.780	1.50351	1.00E-04
1.785	1.50382	9.97E-05
1.790	1.50328	9.91E-05
1.795	1.50413	9.84E-05
1.800	1.50211	9.79E-05
1.805	1.50382	9.70E-05
1.810	1.50297	9.64E-05
1.815	1.50242	9.56E-05
1.820	1.50312	9.45E-05
1.825	1.50141	9.35E-05
1.830	1.50351	9.22E-05
1.835	1.50180	9.13E-05
1.840	1.50219	9.00E-05
1.845	1.50203	8.90E-05
1.850	1.50382	8.76E-05
1.855	1.50203	8.66E-05
1.860	1.50367	8.54E-05
1.865	1.50335	8.41E-05
1.870	1.50468	8.27E-05
1.875	1.50429	8.13E-05
1.880	1.50226	8.02E-05
1.885	1.50203	7.91E-05
1.890	1.50242	7.79E-05
1.895	1.50109	7.66E-05
1.900	1.50187	7.54E-05
1.905	1.50125	7.42E-05
1.910	1.49961	7.30E-05
1.915	1.50242	7.17E-05
1.920	1.49373	7.10E-05
1.925	1.49898	6.96E-05
1.930	1.49820	6.86E-05
1.935	1.49805	6.75E-05
1.940	1.49898	6.64E-05
1.945	1.50078	6.54E-05
1.950	1.49624	6.45E-05
1.955	1.50226	6.35E-05
1.960	1.50055	6.24E-05
1.965	1.49664	6.19E-05
1.970	1.49507	6.08E-05
1.975	1.49844	5.99E-05
1.980	1.49773	5.89E-05
1.985	1.50094	5.82E-05
1.990	1.49891	5.75E-05
1.995	1.50016	5.65E-05
2.000	1.49977	5.60E-05
