Material: isuzu / filter / IEB470
Optical constants. Data kindly provided by Koichiro Ikeda, ISUZU GLASS LTD. Nov 2024. See also Isuzu Glass Products
Comments: Blue filter (IEB, IVB series).
wavelength (um)	n	k
0.200	4.87057	7.11E-05
0.205	-9.55866	7.51E-05
0.210	7.67923	7.83E-05
0.215	1.56425	9.76E-05
0.220	1.57014	1.00E-04
0.225	1.54909	1.04E-04
0.230	1.65305	1.12E-04
0.235	1.62782	1.17E-04
0.240	1.63590	1.25E-04
0.245	1.60077	1.30E-04
0.250	1.60231	1.34E-04
0.255	1.58416	1.43E-04
0.260	1.61005	1.48E-04
0.265	1.58357	1.56E-04
0.270	1.57520	1.59E-04
0.275	1.57527	1.62E-04
0.280	1.57779	1.69E-04
0.285	1.58209	1.84E-04
0.290	1.58416	1.87E-04
0.295	1.57594	1.83E-04
0.300	1.57639	1.94E-04
0.305	1.56589	1.97E-04
0.310	1.56126	1.92E-04
0.315	1.56798	2.03E-04
0.320	1.56223	2.07E-04
0.325	1.56761	1.88E-04
0.330	1.55120	1.55E-04
0.335	1.56006	1.19E-04
0.340	1.55451	8.74E-05
0.345	1.55609	6.59E-05
0.350	1.55609	4.98E-05
0.355	1.55135	3.83E-05
0.360	1.55323	2.96E-05
0.365	1.54879	2.32E-05
0.370	1.55195	1.84E-05
0.375	1.54600	1.48E-05
0.380	1.54811	1.21E-05
0.385	1.54736	9.96E-06
0.390	1.54977	8.33E-06
0.395	1.54456	7.10E-06
0.400	1.54456	6.08E-06
0.405	1.54494	5.28E-06
0.410	1.54176	4.67E-06
0.415	1.54365	4.14E-06
0.420	1.53796	3.74E-06
0.425	1.54085	3.36E-06
0.430	1.53956	3.07E-06
0.435	1.54017	2.81E-06
0.440	1.53736	2.60E-06
0.445	1.53918	2.40E-06
0.450	1.53538	2.28E-06
0.455	1.53705	2.10E-06
0.460	1.53606	2.02E-06
0.465	1.53667	1.91E-06
0.470	1.53492	1.87E-06
0.475	1.53568	1.80E-06
0.480	1.53477	1.81E-06
0.485	1.53363	1.83E-06
0.490	1.53363	1.89E-06
0.495	1.53271	1.98E-06
0.500	1.53187	2.14E-06
0.505	1.53126	2.37E-06
0.510	1.53157	2.64E-06
0.515	1.53149	3.03E-06
0.520	1.53058	3.52E-06
0.525	1.52928	4.14E-06
0.530	1.52935	4.87E-06
0.535	1.52935	5.78E-06
0.540	1.52943	6.85E-06
0.545	1.52958	8.11E-06
0.550	1.52951	9.62E-06
0.555	1.52859	1.13E-05
0.560	1.52859	1.33E-05
0.565	1.52851	1.55E-05
0.570	1.52775	1.80E-05
0.575	1.52813	2.07E-05
0.580	1.52767	2.38E-05
0.585	1.52652	2.72E-05
0.590	1.52668	3.09E-05
0.595	1.52721	3.48E-05
0.600	1.52652	3.92E-05
0.605	1.52683	4.38E-05
0.610	1.52652	4.87E-05
0.615	1.52614	5.40E-05
0.620	1.52622	5.96E-05
0.625	1.52507	6.56E-05
0.630	1.52622	7.19E-05
0.635	1.52545	7.85E-05
0.640	1.52499	8.54E-05
0.645	1.52407	9.26E-05
0.650	1.52461	1.00E-04
0.655	1.52507	1.08E-04
0.660	1.52476	1.16E-04
0.665	1.52476	1.24E-04
0.670	1.52254	1.33E-04
0.675	1.52392	1.41E-04
0.680	1.52246	1.50E-04
0.685	1.52261	1.59E-04
0.690	1.52231	1.68E-04
0.695	1.52292	1.77E-04
0.700	1.52223	1.86E-04
0.705	1.52223	1.95E-04
0.710	1.52138	2.04E-04
0.715	1.52269	2.13E-04
0.720	1.52215	2.22E-04
0.725	1.52192	2.31E-04
0.730	1.52392	2.40E-04
0.735	1.52185	2.48E-04
0.740	1.52215	2.57E-04
0.745	1.52261	2.65E-04
0.750	1.52261	2.73E-04
0.755	1.52215	2.81E-04
0.760	1.52392	2.88E-04
0.765	1.52131	2.96E-04
0.770	1.52192	3.03E-04
0.775	1.52269	3.09E-04
0.780	1.52323	3.15E-04
0.785	1.52292	3.22E-04
0.790	1.52192	3.27E-04
0.795	1.52154	3.33E-04
0.800	1.52277	3.37E-04
0.805	1.52399	3.42E-04
0.810	1.52277	3.46E-04
0.815	1.52092	3.50E-04
0.820	1.52100	3.54E-04
0.825	1.52223	3.57E-04
0.830	1.51900	3.61E-04
0.835	1.52292	3.64E-04
0.840	1.51815	3.65E-04
0.845	1.51715	3.63E-04
0.850	1.51838	4.04E-04
0.855	1.51792	5.52E-04
0.860	1.51908	5.08E-04
0.865	1.51460	5.95E-04
0.870	1.51969	4.64E-04
0.876	1.51861	5.45E-04
0.881	1.51746	4.84E-04
0.886	1.51923	5.35E-04
0.891	1.51977	4.61E-04
0.896	1.51861	4.67E-04
0.901	1.51831	5.14E-04
0.906	1.52085	4.29E-04
0.911	1.52062	4.78E-04
0.916	1.52261	4.81E-04
0.921	1.52277	4.41E-04
0.926	1.52023	4.22E-04
0.931	1.52046	4.01E-04
0.936	1.52085	4.11E-04
0.941	1.52123	4.03E-04
0.946	1.52008	3.89E-04
0.951	1.52123	3.85E-04
0.956	1.52054	3.73E-04
0.961	1.51992	3.77E-04
0.966	1.51992	3.65E-04
0.971	1.51908	3.58E-04
0.976	1.51854	3.57E-04
0.981	1.51931	3.44E-04
0.986	1.51977	3.46E-04
0.991	1.51838	3.37E-04
0.996	1.51792	3.31E-04
1.001	1.51846	3.34E-04
1.006	1.51923	3.26E-04
1.011	1.51808	3.24E-04
1.016	1.51746	3.17E-04
1.021	1.51808	3.13E-04
1.026	1.51730	3.09E-04
1.031	1.51746	3.07E-04
1.036	1.51761	3.00E-04
1.041	1.51754	2.98E-04
1.046	1.51815	2.92E-04
1.051	1.51746	2.89E-04
1.056	1.51792	2.86E-04
1.061	1.51630	2.82E-04
1.066	1.51823	2.80E-04
1.071	1.51615	2.75E-04
1.076	1.51707	2.73E-04
1.081	1.51800	2.69E-04
1.086	1.51700	2.65E-04
1.091	1.51615	2.62E-04
1.096	1.51784	2.58E-04
1.101	1.51692	2.55E-04
1.106	1.51638	2.53E-04
1.111	1.51692	2.49E-04
1.116	1.51792	2.46E-04
1.121	1.51684	2.43E-04
1.126	1.51630	2.40E-04
1.131	1.51576	2.36E-04
1.136	1.51653	2.34E-04
1.141	1.51653	2.30E-04
1.146	1.51622	2.28E-04
1.151	1.51453	2.24E-04
1.156	1.51638	2.21E-04
1.161	1.51669	2.18E-04
1.166	1.51499	2.15E-04
1.171	1.51522	2.12E-04
1.176	1.51530	2.10E-04
1.181	1.51507	2.07E-04
1.186	1.51460	2.04E-04
1.191	1.51599	2.01E-04
1.196	1.51676	1.98E-04
1.201	1.51499	1.95E-04
1.206	1.51561	1.93E-04
1.211	1.51491	1.90E-04
1.216	1.51545	1.87E-04
1.221	1.51615	1.85E-04
1.226	1.51538	1.82E-04
1.231	1.51530	1.79E-04
1.236	1.51568	1.76E-04
1.241	1.51460	1.74E-04
1.246	1.51484	1.71E-04
1.251	1.51522	1.69E-04
1.256	1.51553	1.66E-04
1.261	1.51406	1.64E-04
1.266	1.51453	1.61E-04
1.271	1.51429	1.59E-04
1.276	1.51414	1.56E-04
1.281	1.51491	1.54E-04
1.286	1.51468	1.52E-04
1.291	1.51228	1.50E-04
1.296	1.51391	1.47E-04
1.301	1.51437	1.45E-04
1.306	1.51368	1.43E-04
1.311	1.51422	1.40E-04
1.316	1.51391	1.38E-04
1.321	1.51414	1.36E-04
1.326	1.51360	1.34E-04
1.331	1.51391	1.32E-04
1.336	1.51368	1.30E-04
1.341	1.51399	1.27E-04
1.346	1.51368	1.26E-04
1.351	1.51298	1.24E-04
1.356	1.51290	1.22E-04
1.361	1.51329	1.20E-04
1.366	1.51290	1.18E-04
1.371	1.51321	1.16E-04
1.376	1.51283	1.14E-04
1.381	1.51360	1.12E-04
1.386	1.51182	1.10E-04
1.391	1.51344	1.08E-04
1.396	1.51290	1.07E-04
1.401	1.51143	1.05E-04
1.406	1.51306	1.03E-04
1.411	1.51244	1.02E-04
1.416	1.51213	1.00E-04
1.421	1.51244	9.84E-05
1.426	1.51213	9.68E-05
1.431	1.51174	9.52E-05
1.436	1.51074	9.36E-05
1.441	1.51027	9.22E-05
1.446	1.51190	9.06E-05
1.451	1.51167	8.92E-05
1.456	1.51267	8.77E-05
1.461	1.51182	8.63E-05
1.466	1.51205	8.49E-05
1.471	1.51167	8.35E-05
1.476	1.51136	8.21E-05
1.481	1.51105	8.08E-05
1.486	1.51190	7.95E-05
1.491	1.51143	7.82E-05
1.496	1.51043	7.69E-05
1.501	1.51105	7.57E-05
1.506	1.51128	7.44E-05
1.511	1.51074	7.32E-05
1.516	1.51089	7.20E-05
1.521	1.51105	7.08E-05
1.526	1.51128	6.98E-05
1.531	1.51043	6.85E-05
1.536	1.51105	6.75E-05
1.541	1.51182	6.63E-05
1.546	1.51043	6.53E-05
1.551	1.51275	6.42E-05
1.556	1.50973	6.32E-05
1.561	1.51058	6.22E-05
1.566	1.50934	6.13E-05
1.571	1.50950	6.02E-05
1.576	1.51019	5.93E-05
1.581	1.50818	5.83E-05
1.586	1.51027	5.74E-05
1.591	1.50965	5.64E-05
1.596	1.51027	5.55E-05
1.601	1.51019	5.47E-05
1.606	1.50996	5.38E-05
1.611	1.50950	5.30E-05
1.616	1.51097	5.22E-05
1.621	1.50973	5.13E-05
1.626	1.51043	5.05E-05
1.631	1.51058	4.97E-05
1.636	1.50864	4.89E-05
1.641	1.50988	4.81E-05
1.646	1.51027	4.74E-05
1.651	1.51012	4.66E-05
1.656	1.50965	4.59E-05
1.661	1.50833	4.53E-05
1.666	1.50934	4.46E-05
1.671	1.50934	4.39E-05
1.676	1.50833	4.32E-05
1.681	1.50942	4.26E-05
1.686	1.50934	4.19E-05
1.691	1.50973	4.12E-05
1.696	1.51004	4.06E-05
1.701	1.50903	4.00E-05
1.706	1.50841	3.95E-05
1.711	1.50903	3.89E-05
1.716	1.50981	3.83E-05
1.721	1.50779	3.77E-05
1.726	1.50965	3.72E-05
1.731	1.50802	3.66E-05
1.736	1.50888	3.61E-05
1.741	1.50880	3.55E-05
1.746	1.50849	3.50E-05
1.751	1.50732	3.45E-05
1.756	1.50833	3.41E-05
1.761	1.50864	3.35E-05
1.766	1.50849	3.31E-05
1.771	1.50748	3.26E-05
1.776	1.50818	3.21E-05
1.781	1.50856	3.16E-05
1.786	1.50880	3.13E-05
1.791	1.50693	3.09E-05
1.796	1.50787	3.03E-05
1.801	1.50919	2.99E-05
1.806	1.50833	2.95E-05
1.811	1.50724	2.92E-05
1.816	1.50802	2.86E-05
1.821	1.50678	2.83E-05
1.826	1.50670	2.80E-05
1.831	1.50802	2.77E-05
1.836	1.50522	2.72E-05
1.841	1.50732	2.68E-05
1.846	1.50600	2.64E-05
1.851	1.50608	2.60E-05
1.856	1.50732	2.59E-05
1.861	1.50895	2.54E-05
1.866	1.50787	2.50E-05
1.871	1.50553	2.48E-05
1.876	1.50748	2.44E-05
1.881	1.50585	2.41E-05
1.886	1.50771	2.39E-05
1.891	1.50623	2.35E-05
1.896	1.50592	2.32E-05
1.901	1.50530	2.30E-05
1.906	1.50678	2.26E-05
1.911	1.50748	2.23E-05
1.916	1.50398	2.22E-05
1.921	1.50445	2.19E-05
1.926	1.49961	2.16E-05
1.931	1.50148	2.15E-05
1.936	1.50460	2.11E-05
1.941	1.49906	2.10E-05
1.946	1.50437	2.06E-05
1.951	1.49984	2.05E-05
1.956	1.50569	2.01E-05
1.961	1.50452	1.99E-05
1.966	1.50724	1.95E-05
1.971	1.50522	1.94E-05
1.976	1.50258	1.92E-05
1.981	1.50039	1.91E-05
1.986	1.50351	1.88E-05
1.991	1.50180	1.86E-05
1.996	1.50094	1.85E-05
