Material: isuzu / filter / IEC578
Optical constants. Data kindly provided by Koichiro Ikeda, ISUZU GLASS LTD. Nov 2024. See also Isuzu Glass Products
Comments: Blue filter for color compensation (IEC series). Glass type: P2O5-Al2O3.
Properties: {"nd": 1.54, "Vd": 54.0, "density": [{"value": 2720}], "thermal_expansion": [{"temperature_range": "373 573", "value": 7e-06}], "transformation_temperature": [{"value": 788}], "durability": 1, "hardness": [{"type": "Knoop", "value": "4.99e9"}]}
wavelength (um)	n	k
0.300	1.55849	2.80E-04
0.304	1.57416	2.19E-04
0.308	1.56970	1.66E-04
0.312	1.56947	1.27E-04
0.316	1.56970	9.61E-05
0.320	1.56530	7.30E-05
0.324	1.56470	5.56E-05
0.328	1.57260	4.26E-05
0.332	1.57230	3.30E-05
0.336	1.55759	2.61E-05
0.340	1.56679	2.05E-05
0.344	1.56932	1.67E-05
0.348	1.56947	1.39E-05
0.352	1.56761	1.19E-05
0.356	1.56619	1.04E-05
0.360	1.56343	9.20E-06
0.364	1.56350	8.27E-06
0.368	1.56589	7.52E-06
0.372	1.56291	6.99E-06
0.376	1.55946	6.50E-06
0.380	1.56216	6.03E-06
0.384	1.56066	5.68E-06
0.388	1.55789	5.38E-06
0.392	1.55811	5.08E-06
0.396	1.55864	4.79E-06
0.400	1.55804	4.56E-06
0.404	1.55759	4.37E-06
0.408	1.55744	4.16E-06
0.412	1.55421	3.96E-06
0.416	1.55414	3.76E-06
0.420	1.55496	3.60E-06
0.424	1.55316	3.43E-06
0.428	1.55135	3.27E-06
0.432	1.55135	3.10E-06
0.436	1.55120	2.96E-06
0.440	1.55308	2.82E-06
0.444	1.55022	2.69E-06
0.448	1.54984	2.60E-06
0.452	1.55022	2.45E-06
0.456	1.54849	2.36E-06
0.460	1.54773	2.25E-06
0.464	1.54796	2.14E-06
0.468	1.54683	2.07E-06
0.472	1.54668	1.96E-06
0.476	1.54690	1.89E-06
0.480	1.54630	1.83E-06
0.484	1.54622	1.73E-06
0.488	1.54554	1.71E-06
0.492	1.54516	1.64E-06
0.496	1.54464	1.63E-06
0.500	1.54464	1.62E-06
0.504	1.54388	1.63E-06
0.508	1.54373	1.64E-06
0.512	1.54373	1.69E-06
0.516	1.54342	1.78E-06
0.520	1.54282	1.91E-06
0.524	1.54282	2.08E-06
0.528	1.54236	2.32E-06
0.532	1.54221	2.62E-06
0.536	1.54199	2.94E-06
0.540	1.54153	3.39E-06
0.544	1.54092	3.89E-06
0.548	1.54070	4.52E-06
0.552	1.54077	5.26E-06
0.556	1.54009	6.15E-06
0.560	1.54032	7.17E-06
0.564	1.54039	8.36E-06
0.568	1.53971	9.72E-06
0.572	1.53933	1.13E-05
0.576	1.53926	1.30E-05
0.580	1.53956	1.50E-05
0.584	1.53994	1.72E-05
0.588	1.53926	1.96E-05
0.592	1.53895	2.23E-05
0.596	1.53865	2.53E-05
0.600	1.53880	2.86E-05
0.604	1.53804	3.21E-05
0.608	1.53827	3.60E-05
0.612	1.53796	4.01E-05
0.616	1.53758	4.46E-05
0.620	1.53743	4.94E-05
0.624	1.53728	5.45E-05
0.628	1.53736	5.99E-05
0.632	1.53720	6.56E-05
0.636	1.53690	7.17E-05
0.640	1.53622	7.80E-05
0.644	1.53667	8.48E-05
0.648	1.53675	9.17E-05
0.652	1.53667	9.91E-05
0.656	1.53622	1.07E-04
0.660	1.53736	1.15E-04
0.664	1.53690	1.23E-04
0.668	1.53690	1.32E-04
0.672	1.53644	1.41E-04
0.676	1.53553	1.50E-04
0.680	1.53568	1.59E-04
0.684	1.53576	1.69E-04
0.688	1.53507	1.79E-04
0.692	1.53546	1.89E-04
0.696	1.53599	1.99E-04
0.700	1.53492	2.10E-04
0.704	1.53507	2.21E-04
0.708	1.53576	2.32E-04
0.712	1.53515	2.43E-04
0.716	1.53477	2.54E-04
0.720	1.53530	2.65E-04
0.724	1.53523	2.77E-04
0.728	1.53530	2.88E-04
0.732	1.53553	3.00E-04
0.736	1.53591	3.11E-04
0.740	1.53538	3.22E-04
0.744	1.53584	3.34E-04
0.748	1.53370	3.45E-04
0.752	1.53530	3.56E-04
0.756	1.53408	3.67E-04
0.760	1.53378	3.78E-04
0.764	1.53439	3.89E-04
0.768	1.53523	3.99E-04
0.772	1.53546	4.10E-04
0.776	1.53462	4.20E-04
0.780	1.53424	4.30E-04
0.784	1.53515	4.39E-04
0.788	1.53469	4.49E-04
0.792	1.53614	4.58E-04
0.796	1.53599	4.67E-04
0.800	1.53599	4.76E-04
0.804	1.53469	4.84E-04
0.808	1.53462	4.92E-04
0.812	1.53538	5.00E-04
0.816	1.53401	5.08E-04
0.820	1.53515	5.14E-04
0.824	1.53538	5.21E-04
0.828	1.53386	5.28E-04
0.832	1.53256	5.34E-04
0.836	1.53447	5.40E-04
0.840	1.53447	5.45E-04
0.844	1.53447	5.47E-04
0.848	1.53652	5.59E-04
0.852	1.53264	5.90E-04
0.856	1.53233	6.07E-04
0.860	1.53424	6.08E-04
0.864	1.53477	6.14E-04
0.868	1.52997	6.39E-04
0.872	1.53355	6.36E-04
0.876	1.53424	6.20E-04
0.880	1.53279	6.39E-04
0.884	1.53424	6.38E-04
0.888	1.53233	6.53E-04
0.892	1.53279	6.44E-04
0.896	1.53332	6.45E-04
0.900	1.53424	6.57E-04
0.904	1.53294	6.58E-04
0.908	1.53355	6.53E-04
0.912	1.53393	6.52E-04
0.916	1.53348	6.60E-04
0.920	1.53248	6.50E-04
0.924	1.53340	6.42E-04
0.928	1.53386	6.43E-04
0.932	1.53325	6.45E-04
0.936	1.53180	6.42E-04
0.940	1.53332	6.37E-04
0.944	1.53195	6.40E-04
0.948	1.53157	6.42E-04
0.952	1.53218	6.35E-04
0.956	1.53287	6.36E-04
0.960	1.53134	6.25E-04
0.964	1.53157	6.25E-04
0.968	1.53042	6.21E-04
0.972	1.53134	6.17E-04
0.976	1.53302	6.22E-04
0.980	1.53165	6.20E-04
0.984	1.53218	6.10E-04
0.988	1.53149	6.05E-04
0.992	1.53088	6.01E-04
0.996	1.52958	5.97E-04
1.000	1.53309	5.96E-04
1.004	1.53180	5.88E-04
1.008	1.53149	5.84E-04
1.012	1.53119	5.82E-04
1.016	1.53142	5.78E-04
1.020	1.53157	5.76E-04
1.024	1.53195	5.73E-04
1.028	1.52966	5.66E-04
1.032	1.52951	5.64E-04
1.036	1.53103	5.57E-04
1.040	1.53012	5.53E-04
1.044	1.52928	5.49E-04
1.048	1.53042	5.47E-04
1.052	1.52989	5.43E-04
1.056	1.53065	5.38E-04
1.060	1.53088	5.34E-04
1.064	1.53058	5.29E-04
1.068	1.52890	5.26E-04
1.072	1.52981	5.21E-04
1.076	1.52974	5.16E-04
1.080	1.52989	5.13E-04
1.084	1.52920	5.09E-04
1.088	1.52890	5.04E-04
1.092	1.52905	5.01E-04
1.096	1.52882	4.98E-04
1.100	1.52798	4.92E-04
1.104	1.52981	4.88E-04
1.108	1.52920	4.84E-04
1.112	1.52798	4.79E-04
1.116	1.52935	4.76E-04
1.120	1.52867	4.72E-04
1.124	1.52905	4.68E-04
1.128	1.52905	4.64E-04
1.132	1.52920	4.60E-04
1.136	1.52867	4.56E-04
1.140	1.52943	4.53E-04
1.144	1.52859	4.48E-04
1.148	1.52974	4.44E-04
1.152	1.52928	4.41E-04
1.156	1.52920	4.36E-04
1.160	1.52844	4.32E-04
1.164	1.52851	4.27E-04
1.168	1.52905	4.25E-04
1.172	1.52874	4.21E-04
1.176	1.52813	4.17E-04
1.180	1.52813	4.13E-04
1.184	1.52737	4.09E-04
1.188	1.52821	4.05E-04
1.192	1.52683	4.01E-04
1.196	1.52828	3.98E-04
1.200	1.52913	3.93E-04
1.204	1.52890	3.90E-04
1.208	1.52744	3.86E-04
1.212	1.52821	3.83E-04
1.216	1.52867	3.78E-04
1.220	1.52798	3.75E-04
1.224	1.52744	3.71E-04
1.228	1.52920	3.68E-04
1.232	1.52867	3.64E-04
1.236	1.52859	3.60E-04
1.240	1.52744	3.57E-04
1.244	1.52721	3.53E-04
1.248	1.52637	3.50E-04
1.252	1.52660	3.46E-04
1.256	1.52691	3.42E-04
1.260	1.52905	3.38E-04
1.264	1.52683	3.35E-04
1.268	1.52744	3.32E-04
1.272	1.52591	3.28E-04
1.276	1.52645	3.24E-04
1.280	1.52668	3.21E-04
1.284	1.52714	3.17E-04
1.288	1.52683	3.14E-04
1.292	1.52775	3.10E-04
1.296	1.52721	3.07E-04
1.300	1.52721	3.03E-04
1.304	1.52660	3.00E-04
1.308	1.52675	2.97E-04
1.312	1.52714	2.93E-04
1.316	1.52698	2.90E-04
1.320	1.52675	2.87E-04
1.324	1.52668	2.84E-04
1.328	1.52760	2.80E-04
1.332	1.52737	2.77E-04
1.336	1.52660	2.73E-04
1.340	1.52591	2.71E-04
1.344	1.52629	2.67E-04
1.348	1.52629	2.65E-04
1.352	1.52568	2.62E-04
1.356	1.52645	2.59E-04
1.360	1.52591	2.55E-04
1.364	1.52530	2.52E-04
1.368	1.52545	2.49E-04
1.372	1.52538	2.46E-04
1.376	1.52476	2.43E-04
1.380	1.52469	2.40E-04
1.384	1.52591	2.37E-04
1.388	1.52652	2.34E-04
1.392	1.52522	2.31E-04
1.396	1.52530	2.29E-04
1.400	1.52461	2.26E-04
1.404	1.52645	2.23E-04
1.408	1.52438	2.20E-04
1.412	1.52361	2.18E-04
1.416	1.52522	2.15E-04
1.420	1.52330	2.13E-04
1.424	1.52376	2.10E-04
1.428	1.52399	2.08E-04
1.432	1.52231	2.05E-04
1.436	1.52338	2.02E-04
1.440	1.52438	2.00E-04
1.444	1.52261	1.98E-04
1.448	1.52415	1.95E-04
1.452	1.52292	1.92E-04
1.456	1.52307	1.90E-04
1.460	1.52338	1.88E-04
1.464	1.52223	1.85E-04
1.468	1.52261	1.83E-04
1.472	1.52254	1.81E-04
1.476	1.52192	1.78E-04
1.480	1.52223	1.76E-04
1.484	1.52161	1.74E-04
1.488	1.52246	1.71E-04
1.492	1.52200	1.69E-04
1.496	1.52185	1.67E-04
1.500	1.52215	1.65E-04
