Material: isuzu / filter / IHU350
Optical constants. Data kindly provided by Koichiro Ikeda, ISUZU GLASS LTD. Nov 2024. See also Isuzu Glass Products
Comments: UV transmitting filter (IHU series). Glass type: SiO2-B2O3.
Properties: {"nd": 1.517, "Vd": 64.6, "density": [{"value": 2450}], "thermal_expansion": [{"temperature_range": "373 573", "value": "7.4-06"}], "transformation_temperature": [{"value": 807}], "durability": 2, "hardness": [{"type": "Knoop", "value": "5.98e9"}]}
wavelength (um)	n	k
0.200	-12.52376	2.51E-05
0.205	10.41493	2.42E-05
0.210	1.85884	3.98E-05
0.215	1.52737	4.13E-05
0.220	1.79573	4.30E-05
0.225	1.53568	4.48E-05
0.230	1.68333	4.69E-05
0.235	1.61478	4.92E-05
0.240	1.61121	5.17E-05
0.245	1.61041	5.36E-05
0.250	1.57096	5.55E-05
0.255	1.58814	5.69E-05
0.260	1.58305	5.86E-05
0.265	1.57223	5.97E-05
0.270	1.56754	6.09E-05
0.275	1.56104	6.14E-05
0.280	1.56246	6.15E-05
0.285	1.56679	6.11E-05
0.290	1.56947	6.07E-05
0.295	1.55751	5.98E-05
0.300	1.56036	5.98E-05
0.305	1.55496	5.94E-05
0.310	1.55278	5.97E-05
0.315	1.54161	6.00E-05
0.320	1.55376	5.97E-05
0.325	1.54969	5.53E-05
0.330	1.54736	4.22E-05
0.335	1.54547	2.77E-05
0.340	1.55007	1.71E-05
0.345	1.54849	1.07E-05
0.350	1.54479	6.89E-06
0.355	1.54123	4.67E-06
0.360	1.53971	3.32E-06
0.365	1.54024	2.48E-06
0.370	1.53584	1.95E-06
0.375	1.53447	1.59E-06
0.380	1.53599	1.31E-06
0.385	1.53652	1.10E-06
0.390	1.53302	9.48E-07
0.395	1.53264	8.25E-07
0.400	1.53088	7.17E-07
0.405	1.52989	6.35E-07
0.410	1.53050	5.48E-07
0.415	1.53050	4.80E-07
0.420	1.52997	4.34E-07
0.425	1.52890	3.82E-07
0.430	1.52981	3.29E-07
0.435	1.52760	3.02E-07
0.440	1.52821	2.63E-07
0.445	1.52775	2.39E-07
0.450	1.52691	2.18E-07
0.455	1.52752	1.91E-07
0.460	1.52576	1.70E-07
0.465	1.52637	1.60E-07
0.470	1.52515	1.39E-07
0.475	1.52392	1.28E-07
0.480	1.52369	1.19E-07
0.485	1.52269	1.05E-07
0.490	1.52246	9.87E-08
0.495	1.52307	8.36E-08
0.500	1.52185	8.67E-08
0.505	1.52046	7.76E-08
0.510	1.52069	7.13E-08
0.515	1.52054	6.05E-08
0.520	1.52038	6.43E-08
0.525	1.51985	5.92E-08
0.530	1.51985	5.31E-08
0.535	1.51908	5.03E-08
0.540	1.51954	4.50E-08
0.545	1.51831	5.11E-08
0.550	1.51962	3.55E-08
0.555	1.51784	4.63E-08
0.560	1.51723	4.96E-08
0.565	1.51792	4.01E-08
0.570	1.51777	3.78E-08
0.575	1.51769	3.95E-08
0.580	1.51646	3.91E-08
0.585	1.51754	3.99E-08
0.590	1.51700	4.06E-08
0.595	1.51676	3.99E-08
0.600	1.51692	4.69E-08
0.605	1.51700	3.79E-08
0.610	1.51692	4.47E-08
0.615	1.51622	4.07E-08
0.620	1.51723	3.94E-08
0.625	1.51576	4.12E-08
0.630	1.51576	4.26E-08
0.635	1.51576	3.66E-08
0.640	1.51522	4.84E-08
0.645	1.51468	4.67E-08
0.650	1.51484	4.24E-08
0.655	1.51445	4.07E-08
0.660	1.51584	3.35E-08
0.665	1.51468	4.33E-08
0.670	1.51352	5.05E-08
0.675	1.51290	5.50E-08
0.680	1.51283	5.33E-08
0.685	1.51352	4.83E-08
0.690	1.51298	4.91E-08
0.695	1.51259	5.12E-08
0.700	1.51399	3.96E-08
0.705	1.51221	5.54E-08
0.710	1.51306	5.28E-08
0.715	1.51306	4.94E-08
0.720	1.51221	4.31E-08
0.725	1.51213	5.37E-08
0.730	1.51321	4.68E-08
0.735	1.51337	4.26E-08
0.740	1.51267	3.84E-08
0.745	1.51244	5.27E-08
0.750	1.51182	4.29E-08
0.755	1.51306	3.96E-08
0.760	1.51205	5.68E-08
0.765	1.51182	3.74E-08
0.770	1.51174	4.48E-08
0.775	1.51167	5.07E-08
0.780	1.51507	2.83E-08
0.785	1.51190	4.36E-08
0.790	1.51406	2.37E-08
0.795	1.51244	4.64E-08
0.800	1.51244	3.44E-08
0.805	1.51205	4.22E-08
0.810	1.51514	2.30E-08
0.815	1.51019	5.24E-08
0.820	1.51228	3.75E-08
0.825	1.51136	6.12E-08
0.830	1.51445	1.94E-08
0.835	1.51368	2.66E-08
0.840	1.51089	5.47E-08
0.845	1.50546	8.40E-08
0.850	1.50926	5.16E-09
0.855	1.51043	2.43E-09
0.860	1.51138	2.92E-09
0.865	1.51221	2.64E-09
0.870	1.51089	1.69E-08
0.875	1.51089	5.80E-09
0.880	1.50724	2.16E-08
0.885	1.51058	2.80E-08
0.890	1.51174	8.87E-10
0.895	1.51190	1.09E-08
0.900	1.50973	2.13E-09
0.905	1.50942	2.20E-08
0.910	1.51120	1.88E-08
0.915	1.51154	3.17E-09
0.920	1.51066	5.28E-09
0.925	1.51094	2.26E-09
0.930	1.51004	5.40E-09
0.935	1.51027	3.21E-09
0.940	1.50988	4.68E-09
0.945	1.50991	1.40E-09
0.950	1.50957	1.16E-09
0.955	1.50965	6.83E-09
0.960	1.50895	9.72E-09
0.965	1.50903	1.10E-08
0.970	1.50926	1.14E-09
0.975	1.50988	4.18E-09
0.980	1.50934	8.90E-09
0.985	1.50937	2.05E-09
0.990	1.50810	1.94E-08
0.995	1.50903	9.79E-09
1.000	1.50912	5.07E-09
1.005	1.50818	6.70E-09
1.010	1.50849	1.67E-09
1.015	1.50872	2.74E-09
1.020	1.50771	1.89E-08
1.025	1.50953	5.76E-09
1.030	1.50701	2.65E-08
1.035	1.50841	1.36E-08
1.040	1.50934	4.49E-09
1.045	1.50872	2.96E-08
1.050	1.50818	2.44E-09
1.055	1.50750	1.39E-10
1.060	1.50684	1.22E-09
1.065	1.50763	2.39E-10
1.070	1.50794	9.68E-09
1.075	1.50701	9.22E-09
1.080	1.50600	1.65E-09
1.085	1.50648	3.24E-09
1.090	1.50623	1.13E-08
1.095	1.50732	1.15E-09
1.100	1.50616	1.21E-08
1.105	1.50856	1.93E-08
1.110	1.50740	7.92E-09
1.115	1.50623	5.84E-09
1.120	1.50592	2.81E-09
1.125	1.50538	5.13E-09
1.130	1.50585	1.47E-09
1.135	1.50623	2.11E-09
1.140	1.50569	4.64E-08
1.145	1.50693	1.04E-10
1.150	1.50491	1.46E-08
1.155	1.50592	5.04E-10
1.160	1.50569	1.53E-08
1.165	1.50585	4.40E-08
1.170	1.50686	5.63E-09
1.175	1.50616	4.68E-09
1.180	1.50546	6.83E-10
1.185	1.50522	4.87E-09
1.190	1.50585	4.48E-11
1.195	1.50592	5.21E-10
1.200	1.50522	9.04E-09
1.205	1.50608	6.30E-09
1.210	1.50507	1.70E-08
1.215	1.50499	1.16E-09
1.220	1.50406	6.69E-10
1.225	1.50452	5.50E-09
1.230	1.50429	2.57E-09
1.235	1.50452	2.04E-09
1.240	1.50515	6.98E-10
1.245	1.50426	9.39E-10
1.250	1.50359	2.22E-09
1.255	1.50446	7.24E-10
1.260	1.50515	1.22E-09
1.265	1.50390	1.32E-08
1.270	1.50437	3.77E-09
1.275	1.50431	6.57E-10
1.280	1.50404	3.52E-09
1.285	1.50320	1.99E-08
1.290	1.50335	2.63E-09
1.295	1.50320	3.09E-09
1.300	1.50307	4.92E-09
1.305	1.50281	8.18E-09
1.310	1.50289	3.30E-09
1.315	1.50273	5.45E-09
1.320	1.50343	1.99E-09
1.325	1.50250	5.74E-09
1.330	1.50390	3.23E-08
1.335	1.50297	5.74E-09
1.340	1.50348	3.84E-09
1.345	1.50328	2.65E-08
1.350	1.50312	3.11E-08
1.355	1.50133	1.18E-08
1.360	1.50374	1.13E-08
1.365	1.50219	3.25E-08
1.370	1.50242	4.85E-08
1.375	1.50265	2.89E-08
1.380	1.50273	4.72E-08
1.385	1.50187	1.06E-07
1.390	1.50242	1.25E-07
1.395	1.50203	1.81E-07
1.400	1.50062	2.06E-07
1.405	1.50141	2.53E-07
1.410	1.50320	1.73E-07
1.415	1.50211	1.99E-07
1.420	1.50250	1.61E-07
1.425	1.50133	1.81E-07
1.430	1.50187	1.20E-07
1.435	1.50211	1.09E-07
1.440	1.50203	9.99E-08
1.445	1.50172	8.64E-08
1.450	1.50055	8.05E-08
1.455	1.50070	1.17E-07
1.460	1.50172	9.08E-09
1.465	1.50055	1.00E-07
1.470	1.50102	8.62E-08
1.475	1.50203	1.81E-08
1.480	1.50180	1.39E-08
1.485	1.50164	4.51E-08
1.490	1.50008	8.64E-08
1.495	1.50148	3.18E-08
1.500	1.50008	1.18E-08
1.505	1.50195	4.34E-08
1.510	1.50164	7.40E-08
1.515	1.50156	1.63E-08
1.520	1.49906	5.98E-08
1.525	1.50039	1.44E-08
1.530	1.49930	3.77E-08
1.535	1.50039	3.31E-08
1.540	1.50187	3.58E-08
1.545	1.49914	1.87E-08
1.550	1.50133	2.05E-08
1.555	1.49836	3.79E-08
1.560	1.50016	2.05E-08
1.565	1.49977	4.82E-08
1.570	1.50141	2.35E-08
1.575	1.50039	2.04E-08
1.580	1.49953	4.68E-08
1.585	1.49984	2.32E-08
1.590	1.49875	8.47E-08
1.595	1.49797	4.67E-08
1.600	1.49945	1.64E-08
1.605	1.49875	9.05E-08
1.610	1.49969	2.06E-08
1.615	1.49883	6.83E-08
1.620	1.50094	5.88E-09
1.625	1.49914	7.18E-08
1.630	1.49961	6.02E-08
1.635	1.49937	4.26E-08
1.640	1.49922	3.63E-08
1.645	1.49828	7.40E-08
1.650	1.49812	6.10E-08
1.655	1.49789	6.49E-08
1.660	1.49937	1.23E-07
1.665	1.49781	3.42E-08
1.670	1.49898	1.00E-07
1.675	1.49781	7.14E-08
1.680	1.49820	7.61E-08
1.685	1.49906	8.55E-08
1.690	1.49711	9.52E-08
1.695	1.49671	1.05E-07
1.700	1.49734	7.19E-08
1.705	1.49836	6.39E-08
1.710	1.49671	1.19E-07
1.715	1.49687	1.10E-07
1.720	1.49883	6.62E-08
1.725	1.49718	1.22E-07
1.730	1.49695	1.04E-07
1.735	1.49820	9.78E-08
1.740	1.49679	1.16E-07
1.745	1.49789	6.54E-08
1.750	1.49718	1.02E-07
1.755	1.49711	1.45E-07
1.760	1.49656	9.54E-08
1.765	1.49836	7.77E-08
1.770	1.49742	1.04E-07
1.775	1.49671	1.29E-07
1.780	1.49664	1.27E-07
1.785	1.49812	1.04E-07
1.790	1.49695	1.56E-07
1.795	1.49695	1.44E-07
1.800	1.49711	1.58E-07
1.805	1.49523	1.64E-07
1.810	1.49711	1.85E-07
1.815	1.49679	1.22E-07
1.820	1.49726	1.42E-07
1.825	1.49609	1.33E-07
1.830	1.49554	1.64E-07
1.835	1.49530	1.82E-07
1.840	1.49428	1.94E-07
1.845	1.49656	1.49E-07
1.850	1.49577	2.00E-07
1.855	1.49515	1.99E-07
1.860	1.49263	2.55E-07
1.865	1.49554	1.91E-07
1.870	1.49295	1.89E-07
1.875	1.49609	1.83E-07
1.880	1.49342	2.21E-07
1.885	1.49413	2.46E-07
1.890	1.49475	1.91E-07
1.895	1.49523	1.65E-07
1.900	1.49358	2.39E-07
1.905	1.49703	1.78E-07
1.910	1.49201	3.07E-07
1.915	1.49734	2.04E-07
1.920	1.49499	2.77E-07
1.925	1.49515	2.49E-07
1.930	1.49067	2.97E-07
1.935	1.49027	3.22E-07
1.940	1.49475	2.53E-07
1.945	1.49106	3.00E-07
1.950	1.49468	2.87E-07
1.955	1.49389	2.86E-07
1.960	1.49263	2.91E-07
1.965	1.49012	3.35E-07
1.970	1.48838	3.69E-07
1.975	1.49122	3.51E-07
1.980	1.49216	3.31E-07
1.985	1.48744	4.26E-07
1.990	1.49232	3.51E-07
1.995	1.49122	2.84E-07
2.000	1.49098	3.96E-07
