Material: isuzu / filter / ILB90
Optical constants. Data kindly provided by Koichiro Ikeda, ISUZU GLASS LTD. Nov 2024. See also Isuzu Glass Products
Comments: Light balancing filter (ILA, ILB series).
wavelength (um)	n	k
0.300	1.54365	9.54E-05
0.304	1.53409	7.50E-05
0.308	1.53256	5.99E-05
0.312	1.52576	4.75E-05
0.316	1.53720	3.71E-05
0.320	1.54161	2.84E-05
0.324	1.53431	2.22E-05
0.328	1.53454	1.73E-05
0.332	1.53728	1.37E-05
0.336	1.53378	1.09E-05
0.340	1.53979	8.13E-06
0.344	1.54274	6.59E-06
0.348	1.53895	5.32E-06
0.352	1.53827	4.47E-06
0.356	1.53599	3.68E-06
0.360	1.54108	3.32E-06
0.364	1.52882	2.77E-06
0.368	1.53409	2.17E-06
0.372	1.53492	1.81E-06
0.376	1.53523	1.84E-06
0.380	1.53073	1.73E-06
0.384	1.52989	1.61E-06
0.388	1.53004	1.69E-06
0.392	1.52737	1.73E-06
0.396	1.52859	1.75E-06
0.400	1.52760	1.84E-06
0.404	1.52346	1.76E-06
0.408	1.52507	2.05E-06
0.412	1.52307	2.26E-06
0.416	1.52384	2.78E-06
0.420	1.52338	3.21E-06
0.424	1.52146	3.58E-06
0.428	1.52161	3.85E-06
0.432	1.52154	4.23E-06
0.436	1.52131	4.53E-06
0.440	1.51815	4.93E-06
0.444	1.51877	5.34E-06
0.448	1.51669	5.72E-06
0.452	1.51715	5.92E-06
0.456	1.51661	6.30E-06
0.460	1.51584	6.58E-06
0.464	1.51638	6.90E-06
0.468	1.51599	7.27E-06
0.472	1.51437	7.59E-06
0.476	1.51368	7.90E-06
0.480	1.51406	8.10E-06
0.484	1.51468	8.42E-06
0.488	1.51337	8.72E-06
0.492	1.51329	9.00E-06
0.496	1.51298	9.44E-06
0.500	1.51306	9.64E-06
0.504	1.51197	1.00E-05
0.508	1.51105	1.03E-05
0.512	1.51143	1.06E-05
0.516	1.51089	1.11E-05
0.520	1.51012	1.14E-05
0.524	1.51012	1.18E-05
0.528	1.51012	1.21E-05
0.532	1.50919	1.24E-05
0.536	1.50849	1.27E-05
0.540	1.50864	1.29E-05
0.544	1.50833	1.30E-05
0.548	1.50771	1.30E-05
0.552	1.50771	1.31E-05
0.556	1.50756	1.33E-05
0.560	1.50717	1.35E-05
0.564	1.50701	1.39E-05
0.568	1.50686	1.45E-05
0.572	1.50639	1.51E-05
0.576	1.50616	1.60E-05
0.580	1.50585	1.70E-05
0.584	1.50491	1.80E-05
0.588	1.50553	1.90E-05
0.592	1.50515	1.97E-05
0.596	1.50483	2.03E-05
0.600	1.50468	2.09E-05
0.604	1.50421	2.13E-05
0.608	1.50413	2.18E-05
0.612	1.50367	2.24E-05
0.616	1.50374	2.30E-05
0.620	1.50390	2.37E-05
0.624	1.50335	2.45E-05
0.628	1.50312	2.54E-05
0.632	1.50304	2.62E-05
0.636	1.50289	2.69E-05
0.640	1.50304	2.79E-05
0.644	1.50273	2.85E-05
0.648	1.50265	2.93E-05
0.652	1.50242	2.98E-05
0.656	1.50164	3.03E-05
0.660	1.50203	3.07E-05
0.664	1.50180	3.10E-05
0.668	1.50187	3.12E-05
0.672	1.50219	3.13E-05
0.676	1.50195	3.14E-05
0.680	1.50172	3.15E-05
0.684	1.50172	3.15E-05
0.688	1.50094	3.16E-05
0.692	1.50078	3.17E-05
0.696	1.50062	3.20E-05
0.700	1.50102	3.23E-05
0.704	1.50062	3.25E-05
0.708	1.50070	3.29E-05
0.712	1.50031	3.33E-05
0.716	1.50008	3.38E-05
0.720	1.49984	3.42E-05
0.724	1.49961	3.45E-05
0.728	1.49953	3.47E-05
0.732	1.50039	3.52E-05
0.736	1.50000	3.55E-05
0.740	1.49961	3.60E-05
0.744	1.50008	3.62E-05
0.748	1.49937	3.65E-05
0.752	1.49906	3.68E-05
0.756	1.50016	3.71E-05
0.760	1.49945	3.72E-05
0.764	1.49937	3.76E-05
0.768	1.49891	3.80E-05
0.772	1.49945	3.79E-05
0.776	1.49922	3.82E-05
0.780	1.49969	3.79E-05
0.784	1.49914	3.83E-05
0.788	1.49828	3.87E-05
0.792	1.50008	3.84E-05
0.796	1.50016	3.88E-05
0.800	1.49992	3.87E-05
0.804	1.50023	3.88E-05
0.808	1.49914	3.86E-05
0.812	1.49922	3.86E-05
0.816	1.49898	3.87E-05
0.820	1.49953	3.91E-05
0.824	1.49922	3.88E-05
0.828	1.49836	3.88E-05
0.832	1.49992	3.79E-05
0.836	1.49969	3.84E-05
0.840	1.50078	3.84E-05
0.844	1.50062	3.83E-05
0.848	1.50109	3.90E-05
0.852	1.49640	3.83E-05
0.856	1.49530	3.83E-05
0.860	1.49428	3.83E-05
0.864	1.49350	3.83E-05
0.868	1.49256	3.76E-05
0.872	1.49562	3.76E-05
0.876	1.49617	3.77E-05
0.880	1.49224	3.77E-05
0.884	1.49405	3.74E-05
0.888	1.49570	3.69E-05
0.892	1.49593	3.68E-05
0.896	1.49632	3.66E-05
0.900	1.49483	3.63E-05
0.904	1.49750	3.62E-05
0.908	1.49914	3.59E-05
0.912	1.49718	3.57E-05
0.916	1.49797	3.55E-05
0.920	1.49671	3.53E-05
0.924	1.49632	3.50E-05
0.928	1.49609	3.48E-05
0.932	1.49679	3.46E-05
0.936	1.49711	3.44E-05
0.940	1.49491	3.41E-05
0.944	1.49554	3.39E-05
0.948	1.49389	3.37E-05
0.952	1.49413	3.34E-05
0.956	1.49452	3.33E-05
0.960	1.49609	3.28E-05
0.964	1.49452	3.26E-05
0.968	1.49342	3.24E-05
0.972	1.49428	3.20E-05
0.976	1.49428	3.19E-05
0.980	1.49444	3.16E-05
0.984	1.49507	3.13E-05
0.988	1.49491	3.12E-05
0.992	1.49436	3.09E-05
0.996	1.49366	3.07E-05
1.000	1.49428	3.03E-05
1.004	1.49436	3.00E-05
1.008	1.49303	2.99E-05
1.012	1.49295	2.96E-05
1.016	1.49452	2.95E-05
1.020	1.49193	2.93E-05
1.024	1.49358	2.89E-05
1.028	1.49216	2.87E-05
1.032	1.49271	2.86E-05
1.036	1.49248	2.84E-05
1.040	1.49185	2.80E-05
1.044	1.49358	2.78E-05
1.048	1.49193	2.75E-05
1.052	1.49232	2.75E-05
1.056	1.49295	2.72E-05
1.060	1.49232	2.71E-05
1.064	1.49138	2.70E-05
1.068	1.49075	2.66E-05
1.072	1.49287	2.64E-05
1.076	1.49216	2.61E-05
1.080	1.49287	2.59E-05
1.084	1.49240	2.58E-05
1.088	1.49287	2.56E-05
1.092	1.49075	2.53E-05
1.096	1.49114	2.54E-05
1.100	1.49193	2.51E-05
1.104	1.49279	2.50E-05
1.108	1.49224	2.46E-05
1.112	1.49193	2.46E-05
1.116	1.49114	2.43E-05
1.120	1.49106	2.41E-05
1.124	1.49020	2.42E-05
1.128	1.49122	2.40E-05
1.132	1.49083	2.37E-05
1.136	1.49161	2.36E-05
1.140	1.49059	2.34E-05
1.144	1.49122	2.31E-05
1.148	1.48988	2.31E-05
1.152	1.49177	2.29E-05
1.156	1.49067	2.25E-05
1.160	1.49145	2.25E-05
1.164	1.49090	2.26E-05
1.168	1.49012	2.24E-05
1.172	1.48964	2.23E-05
1.176	1.49169	2.20E-05
1.180	1.49106	2.18E-05
1.184	1.49106	2.17E-05
1.188	1.49130	2.16E-05
1.192	1.49161	2.15E-05
1.196	1.49161	2.14E-05
1.200	1.49067	2.14E-05
1.204	1.49106	2.12E-05
1.208	1.49020	2.10E-05
1.212	1.49161	2.09E-05
1.216	1.49122	2.04E-05
1.220	1.49193	2.05E-05
1.224	1.49059	2.07E-05
1.228	1.48941	2.05E-05
1.232	1.49083	2.04E-05
1.236	1.48917	2.03E-05
1.240	1.49098	2.00E-05
1.244	1.49075	1.97E-05
1.248	1.49020	1.98E-05
1.252	1.48933	1.98E-05
1.256	1.49067	1.96E-05
1.260	1.49051	1.94E-05
1.264	1.49027	1.93E-05
1.268	1.49051	1.91E-05
1.272	1.48996	1.91E-05
1.276	1.49169	1.87E-05
1.280	1.49027	1.88E-05
1.284	1.49114	1.86E-05
1.288	1.49114	1.85E-05
1.292	1.49098	1.85E-05
1.296	1.49020	1.83E-05
1.300	1.48980	1.81E-05
1.304	1.49051	1.79E-05
1.308	1.49035	1.79E-05
1.312	1.49035	1.77E-05
1.316	1.48909	1.77E-05
1.320	1.48964	1.75E-05
1.324	1.48957	1.73E-05
1.328	1.48972	1.71E-05
1.332	1.48933	1.70E-05
1.336	1.48957	1.70E-05
1.340	1.49004	1.68E-05
1.344	1.48996	1.67E-05
1.348	1.48972	1.65E-05
1.352	1.48901	1.65E-05
1.356	1.48917	1.63E-05
1.360	1.48909	1.61E-05
1.364	1.48941	1.62E-05
1.368	1.49027	1.61E-05
1.372	1.49051	1.59E-05
1.376	1.49020	1.59E-05
1.380	1.49012	1.56E-05
1.384	1.48988	1.58E-05
1.388	1.48838	1.58E-05
1.392	1.48933	1.56E-05
1.396	1.48807	1.55E-05
1.400	1.48909	1.54E-05
1.404	1.48886	1.53E-05
1.408	1.48822	1.53E-05
1.412	1.48815	1.52E-05
1.416	1.48870	1.51E-05
1.420	1.48751	1.50E-05
1.424	1.48665	1.51E-05
1.428	1.48846	1.50E-05
1.432	1.48807	1.47E-05
1.436	1.48680	1.48E-05
1.440	1.48767	1.49E-05
1.444	1.48712	1.46E-05
1.448	1.48657	1.48E-05
1.452	1.48617	1.48E-05
1.456	1.48594	1.46E-05
1.460	1.48594	1.46E-05
1.464	1.48759	1.46E-05
1.468	1.48783	1.44E-05
1.472	1.48712	1.42E-05
1.476	1.48720	1.43E-05
1.480	1.48586	1.42E-05
1.484	1.48601	1.43E-05
1.488	1.48586	1.41E-05
1.492	1.48562	1.41E-05
1.496	1.48633	1.39E-05
1.500	1.48649	1.38E-05
