Material: isuzu / filter / ISK157
Optical constants. Data kindly provided by Koichiro Ikeda, ISUZU GLASS LTD. Nov 2024. See also Isuzu Glass Products
Comments: Heat absorbing filter (ISK series). Glass type: P2O5-Al2O3.
Properties: {"nd": 1.518, "Vd": 86.3, "density": [{"value": 2610}], "thermal_expansion": [{"temperature_range": "373 573", "value": 5.7e-06}], "transformation_temperature": [{"value": 870}], "durability": 1, "hardness": [{"type": "Knoop", "value": "4.72e9"}]}
wavelength (um)	n	k
0.200	2.55060	4.93E-05
0.205	9.79702	4.81E-05
0.210	1.52430	8.05E-05
0.215	1.25277	7.18E-05
0.220	1.53971	8.07E-05
0.225	1.70769	8.12E-05
0.230	1.63425	8.32E-05
0.235	1.59292	8.99E-05
0.240	1.60618	8.90E-05
0.245	1.58608	9.22E-05
0.250	1.59975	9.74E-05
0.255	1.57379	9.94E-05
0.260	1.56358	9.95E-05
0.265	1.55744	9.51E-05
0.270	1.56126	8.13E-05
0.275	1.56373	6.72E-05
0.280	1.55991	5.47E-05
0.285	1.55534	4.41E-05
0.290	1.55931	3.50E-05
0.295	1.55188	2.71E-05
0.300	1.55579	2.07E-05
0.305	1.54569	1.56E-05
0.310	1.54796	1.16E-05
0.315	1.55037	8.51E-06
0.320	1.53203	6.28E-06
0.325	1.54584	4.54E-06
0.330	1.54698	3.35E-06
0.335	1.54327	2.49E-06
0.340	1.54100	1.93E-06
0.345	1.53956	1.53E-06
0.350	1.53910	1.17E-06
0.355	1.54206	8.79E-07
0.360	1.53895	7.23E-07
0.365	1.54115	6.10E-07
0.370	1.53850	5.71E-07
0.375	1.53713	5.46E-07
0.380	1.53165	5.70E-07
0.385	1.53233	6.12E-07
0.390	1.53218	7.13E-07
0.395	1.53530	8.44E-07
0.400	1.52890	9.86E-07
0.405	1.53172	1.06E-06
0.410	1.53042	1.14E-06
0.415	1.52913	1.21E-06
0.420	1.52851	1.30E-06
0.425	1.52851	1.30E-06
0.430	1.52645	1.27E-06
0.435	1.52760	1.22E-06
0.440	1.52714	1.19E-06
0.445	1.52645	1.18E-06
0.450	1.52561	1.21E-06
0.455	1.52507	1.29E-06
0.460	1.52476	1.31E-06
0.465	1.52446	1.30E-06
0.470	1.52484	1.25E-06
0.475	1.52430	1.22E-06
0.480	1.52353	1.20E-06
0.485	1.52238	1.18E-06
0.490	1.52315	1.15E-06
0.495	1.52208	1.16E-06
0.500	1.52208	1.20E-06
0.505	1.52138	1.21E-06
0.510	1.52077	1.27E-06
0.515	1.52115	1.35E-06
0.520	1.51969	1.42E-06
0.525	1.52038	1.47E-06
0.530	1.51962	1.50E-06
0.535	1.51931	1.52E-06
0.540	1.51915	1.48E-06
0.545	1.51985	1.40E-06
0.550	1.51962	1.37E-06
0.555	1.51877	1.36E-06
0.560	1.51869	1.40E-06
0.565	1.51900	1.44E-06
0.570	1.51784	1.52E-06
0.575	1.51754	1.60E-06
0.580	1.51792	1.68E-06
0.585	1.51800	1.79E-06
0.590	1.51769	1.93E-06
0.595	1.51692	2.09E-06
0.600	1.51700	2.27E-06
0.605	1.51630	2.48E-06
0.610	1.51653	2.70E-06
0.615	1.51746	2.97E-06
0.620	1.51661	3.26E-06
0.625	1.51568	3.59E-06
0.630	1.51661	3.93E-06
0.635	1.51599	4.33E-06
0.640	1.51561	4.74E-06
0.645	1.51599	5.19E-06
0.650	1.51576	5.66E-06
0.655	1.51607	6.19E-06
0.660	1.51507	6.74E-06
0.665	1.51422	7.32E-06
0.670	1.51429	7.94E-06
0.675	1.51399	8.59E-06
0.680	1.51314	9.34E-06
0.685	1.51391	1.02E-05
0.690	1.51259	1.10E-05
0.695	1.51321	1.20E-05
0.700	1.51375	1.30E-05
0.705	1.51344	1.40E-05
0.710	1.51368	1.51E-05
0.715	1.51329	1.62E-05
0.720	1.51267	1.75E-05
0.725	1.51422	1.87E-05
0.730	1.51306	2.00E-05
0.735	1.51259	2.14E-05
0.740	1.51399	2.29E-05
0.745	1.51314	2.44E-05
0.750	1.51399	2.61E-05
0.755	1.51368	2.78E-05
0.760	1.51259	2.96E-05
0.765	1.51221	3.14E-05
0.770	1.51151	3.34E-05
0.775	1.51468	3.54E-05
0.780	1.51228	3.76E-05
0.785	1.51352	3.97E-05
0.790	1.51576	4.20E-05
0.795	1.51205	4.44E-05
0.800	1.51174	4.68E-05
0.805	1.51306	4.94E-05
0.810	1.51136	5.20E-05
0.815	1.51159	5.47E-05
0.820	1.51167	5.74E-05
0.825	1.51283	6.03E-05
0.830	1.51445	6.32E-05
0.835	1.50988	6.62E-05
0.840	1.51012	6.92E-05
0.845	1.51684	7.21E-05
0.850	1.51854	7.62E-05
0.855	1.50996	8.04E-05
0.860	1.51630	8.39E-05
0.865	1.51105	8.74E-05
0.870	1.50950	9.11E-05
0.875	1.51236	9.48E-05
0.880	1.51019	9.85E-05
0.885	1.51252	1.02E-04
0.890	1.50833	1.06E-04
0.895	1.51004	1.10E-04
0.900	1.51213	1.14E-04
0.905	1.51190	1.17E-04
0.910	1.51329	1.22E-04
0.915	1.51298	1.25E-04
0.920	1.51275	1.29E-04
0.925	1.51314	1.33E-04
0.930	1.51314	1.37E-04
0.935	1.51344	1.42E-04
0.940	1.51182	1.46E-04
0.945	1.51205	1.50E-04
0.950	1.51213	1.55E-04
0.955	1.51190	1.58E-04
0.960	1.51205	1.63E-04
0.965	1.51190	1.68E-04
0.970	1.51105	1.71E-04
0.975	1.51136	1.76E-04
0.980	1.51143	1.79E-04
0.985	1.51190	1.84E-04
0.990	1.51074	1.88E-04
0.995	1.51035	1.92E-04
1.000	1.51089	1.95E-04
1.005	1.51066	2.02E-04
1.010	1.51027	2.05E-04
1.015	1.51097	2.09E-04
1.020	1.51128	2.13E-04
1.025	1.51143	2.16E-04
1.030	1.51035	2.22E-04
1.035	1.50903	2.24E-04
1.040	1.50926	2.31E-04
1.045	1.51074	2.33E-04
1.050	1.51050	2.36E-04
1.055	1.50833	2.41E-04
1.060	1.51043	2.42E-04
1.065	1.50996	2.48E-04
1.070	1.51027	2.55E-04
1.075	1.50934	2.56E-04
1.080	1.51004	2.61E-04
1.085	1.50926	2.64E-04
1.090	1.50934	2.69E-04
1.095	1.50825	2.70E-04
1.100	1.50903	2.77E-04
1.105	1.50833	2.79E-04
1.110	1.50802	2.82E-04
1.115	1.51105	2.82E-04
1.120	1.50732	2.86E-04
1.125	1.50779	2.95E-04
1.130	1.50864	2.91E-04
1.135	1.50748	2.97E-04
1.140	1.50864	3.00E-04
1.145	1.50934	2.92E-04
1.150	1.50849	3.13E-04
1.155	1.50600	3.13E-04
1.160	1.50864	3.00E-04
1.165	1.50833	3.13E-04
1.170	1.50779	3.18E-04
1.175	1.50833	3.09E-04
1.180	1.50740	3.12E-04
1.185	1.50895	3.16E-04
1.190	1.50709	3.19E-04
1.195	1.50585	3.21E-04
1.200	1.50655	3.18E-04
1.205	1.50740	3.20E-04
1.210	1.50763	3.28E-04
1.215	1.50880	3.23E-04
1.220	1.50662	3.27E-04
1.225	1.50787	3.29E-04
1.230	1.50771	3.24E-04
1.235	1.50686	3.21E-04
1.240	1.50608	3.33E-04
1.245	1.50709	3.26E-04
1.250	1.50709	3.35E-04
1.255	1.50538	3.33E-04
1.260	1.50693	3.33E-04
1.265	1.50709	3.39E-04
1.270	1.50732	3.39E-04
1.275	1.50678	3.31E-04
1.280	1.50662	3.37E-04
1.285	1.50546	3.41E-04
1.290	1.50693	3.39E-04
1.295	1.50553	3.35E-04
1.300	1.50476	3.30E-04
1.305	1.50600	3.34E-04
1.310	1.50577	3.29E-04
1.315	1.50569	3.36E-04
1.320	1.50553	3.39E-04
1.325	1.50530	3.30E-04
1.330	1.50561	3.31E-04
1.335	1.50623	3.29E-04
1.340	1.50515	3.32E-04
1.345	1.50476	3.29E-04
1.350	1.50382	3.33E-04
1.355	1.50406	3.26E-04
1.360	1.50304	3.29E-04
1.365	1.50553	3.31E-04
1.370	1.50374	3.32E-04
1.375	1.50273	3.30E-04
1.380	1.50522	3.32E-04
1.385	1.50351	3.30E-04
1.390	1.50398	3.26E-04
1.395	1.50499	3.32E-04
1.400	1.50390	3.30E-04
1.405	1.50553	3.27E-04
1.410	1.50460	3.28E-04
1.415	1.50351	3.28E-04
1.420	1.50367	3.29E-04
1.425	1.50398	3.26E-04
1.430	1.50343	3.23E-04
1.435	1.50367	3.24E-04
1.440	1.50297	3.23E-04
1.445	1.50304	3.21E-04
1.450	1.50273	3.21E-04
1.455	1.50406	3.19E-04
1.460	1.50312	3.19E-04
1.465	1.50452	3.18E-04
1.470	1.50273	3.13E-04
1.475	1.50226	3.14E-04
1.480	1.50211	3.12E-04
1.485	1.50289	3.12E-04
1.490	1.50141	3.11E-04
1.495	1.50250	3.09E-04
1.500	1.50203	3.13E-04
1.505	1.50304	3.08E-04
1.510	1.50187	3.08E-04
1.515	1.50211	3.04E-04
1.520	1.50180	3.04E-04
1.525	1.50289	3.04E-04
1.530	1.50219	3.04E-04
1.535	1.50304	3.02E-04
1.540	1.50078	3.00E-04
1.545	1.50133	3.01E-04
1.550	1.50219	2.98E-04
1.555	1.50211	2.96E-04
1.560	1.50141	2.96E-04
1.565	1.50219	2.94E-04
1.570	1.50250	2.93E-04
1.575	1.50265	2.93E-04
1.580	1.50125	2.91E-04
1.585	1.50133	2.90E-04
1.590	1.50078	2.89E-04
1.595	1.50211	2.89E-04
1.600	1.50242	2.87E-04
1.605	1.50070	2.86E-04
1.610	1.50055	2.85E-04
1.615	1.50187	2.84E-04
1.620	1.50117	2.83E-04
1.625	1.50125	2.81E-04
1.630	1.50047	2.81E-04
1.635	1.50023	2.80E-04
1.640	1.50109	2.79E-04
1.645	1.50062	2.78E-04
1.650	1.50172	2.77E-04
1.655	1.50148	2.77E-04
1.660	1.50133	2.76E-04
1.665	1.50133	2.76E-04
1.670	1.50055	2.75E-04
1.675	1.49992	2.75E-04
1.680	1.49961	2.73E-04
1.685	1.50133	2.74E-04
1.690	1.50102	2.72E-04
1.695	1.49961	2.72E-04
1.700	1.49922	2.72E-04
1.705	1.50062	2.73E-04
1.710	1.49969	2.70E-04
1.715	1.50000	2.71E-04
1.720	1.50016	2.71E-04
1.725	1.49977	2.71E-04
1.730	1.50000	2.70E-04
1.735	1.49945	2.72E-04
1.740	1.49945	2.71E-04
1.745	1.49969	2.70E-04
1.750	1.49977	2.70E-04
1.755	1.49961	2.71E-04
1.760	1.49883	2.71E-04
1.765	1.49859	2.71E-04
1.770	1.49867	2.72E-04
1.775	1.49930	2.73E-04
1.780	1.49758	2.72E-04
1.785	1.49851	2.73E-04
1.790	1.49937	2.73E-04
1.795	1.49930	2.74E-04
1.800	1.49851	2.74E-04
1.805	1.49789	2.74E-04
1.810	1.50008	2.75E-04
1.815	1.49945	2.76E-04
1.820	1.49765	2.77E-04
1.825	1.50109	2.77E-04
1.830	1.49679	2.78E-04
1.835	1.50016	2.79E-04
1.840	1.49898	2.81E-04
1.845	1.49937	2.81E-04
1.850	1.49593	2.82E-04
1.855	1.49828	2.83E-04
1.860	1.49875	2.85E-04
1.865	1.49648	2.86E-04
1.870	1.49859	2.86E-04
1.875	1.49805	2.88E-04
1.880	1.49812	2.89E-04
1.885	1.49664	2.90E-04
1.890	1.49538	2.91E-04
1.895	1.49640	2.92E-04
1.900	1.49758	2.94E-04
1.905	1.49570	2.96E-04
1.910	1.49734	2.97E-04
1.915	1.49844	2.99E-04
1.920	1.49593	3.00E-04
1.925	1.49326	3.01E-04
1.930	1.49389	3.04E-04
1.935	1.49546	3.04E-04
1.940	1.49216	3.06E-04
1.945	1.49601	3.07E-04
1.950	1.48901	3.09E-04
1.955	1.49389	3.11E-04
1.960	1.49593	3.13E-04
1.965	1.49224	3.15E-04
1.970	1.49271	3.16E-04
1.975	1.49027	3.17E-04
1.980	1.49240	3.19E-04
1.985	1.49201	3.21E-04
1.990	1.49169	3.23E-04
1.995	1.49452	3.25E-04
2.000	1.49468	3.26E-04
