Material: isuzu / filter / ISK370
Optical constants. Data kindly provided by Koichiro Ikeda, ISUZU GLASS LTD. Nov 2024. See also Isuzu Glass Products
Comments: Heat absorbing filter (ISK series). Glass type: P2O5-Al2O3.
Properties: {"nd": 1.509, "Vd": 84.8, "density": [{"value": 2580}], "thermal_expansion": [{"temperature_range": "373 573", "value": 5.8e-06}], "transformation_temperature": [{"value": 857}], "durability": 1, "hardness": [{"type": "Knoop", "value": "4.73e9"}]}
wavelength (um)	n	k
0.200	-6.20817	4.29E-05
0.205	35.17049	2.26E-05
0.210	2.01093	4.41E-05
0.215	1.66851	5.50E-05
0.220	1.56485	5.01E-05
0.225	1.61536	5.42E-05
0.230	1.58851	5.42E-05
0.235	1.58098	5.49E-05
0.240	1.55871	5.67E-05
0.245	1.57490	5.78E-05
0.250	1.58371	5.96E-05
0.255	1.57557	5.58E-05
0.260	1.56895	4.53E-05
0.265	1.56021	3.58E-05
0.270	1.55060	2.85E-05
0.275	1.56492	2.29E-05
0.280	1.55511	1.85E-05
0.285	1.54403	1.47E-05
0.290	1.54796	1.15E-05
0.295	1.55173	8.85E-06
0.300	1.54448	6.68E-06
0.305	1.54123	5.01E-06
0.310	1.54569	3.67E-06
0.315	1.53492	2.70E-06
0.320	1.53675	1.97E-06
0.325	1.53035	1.44E-06
0.330	1.53591	1.03E-06
0.335	1.53994	7.59E-07
0.340	1.53637	5.81E-07
0.345	1.53515	4.55E-07
0.350	1.53226	3.57E-07
0.355	1.52851	2.61E-07
0.360	1.53294	2.12E-07
0.365	1.52943	1.92E-07
0.370	1.52943	1.68E-07
0.375	1.52828	1.58E-07
0.380	1.52775	1.50E-07
0.385	1.52599	1.80E-07
0.390	1.52714	2.01E-07
0.395	1.52407	2.59E-07
0.400	1.52369	2.93E-07
0.405	1.52453	3.21E-07
0.410	1.52492	3.45E-07
0.415	1.52192	3.78E-07
0.420	1.52161	4.04E-07
0.425	1.52092	4.08E-07
0.430	1.51915	3.92E-07
0.435	1.51985	3.80E-07
0.440	1.51900	3.69E-07
0.445	1.51861	3.72E-07
0.450	1.51915	3.74E-07
0.455	1.51892	3.93E-07
0.460	1.51730	4.12E-07
0.465	1.51808	3.99E-07
0.470	1.51646	3.95E-07
0.475	1.51584	3.86E-07
0.480	1.51445	3.85E-07
0.485	1.51553	3.72E-07
0.490	1.51383	3.71E-07
0.495	1.51391	3.73E-07
0.500	1.51368	3.85E-07
0.505	1.51314	3.88E-07
0.510	1.51306	4.16E-07
0.515	1.51337	4.41E-07
0.520	1.51128	4.67E-07
0.525	1.51136	4.87E-07
0.530	1.51167	5.02E-07
0.535	1.51182	5.01E-07
0.540	1.51167	4.99E-07
0.545	1.51182	4.79E-07
0.550	1.51159	4.71E-07
0.555	1.51043	4.84E-07
0.560	1.51143	4.87E-07
0.565	1.51058	5.16E-07
0.570	1.51066	5.33E-07
0.575	1.50988	5.66E-07
0.580	1.51027	5.96E-07
0.585	1.50950	6.43E-07
0.590	1.50973	6.88E-07
0.595	1.50903	7.44E-07
0.600	1.50957	8.08E-07
0.605	1.50926	8.77E-07
0.610	1.50957	9.58E-07
0.615	1.50810	1.05E-06
0.620	1.50794	1.16E-06
0.625	1.50841	1.27E-06
0.630	1.50787	1.39E-06
0.635	1.50872	1.52E-06
0.640	1.50825	1.66E-06
0.645	1.50825	1.82E-06
0.650	1.50849	1.99E-06
0.655	1.50895	2.15E-06
0.660	1.50756	2.36E-06
0.665	1.50686	2.55E-06
0.670	1.50639	2.76E-06
0.675	1.50693	3.00E-06
0.680	1.50592	3.25E-06
0.685	1.50686	3.53E-06
0.690	1.50553	3.83E-06
0.695	1.50631	4.15E-06
0.700	1.50546	4.50E-06
0.705	1.50655	4.85E-06
0.710	1.50623	5.22E-06
0.715	1.50717	5.60E-06
0.720	1.50585	6.03E-06
0.725	1.50585	6.45E-06
0.730	1.50639	6.90E-06
0.735	1.50647	7.37E-06
0.740	1.50686	7.87E-06
0.745	1.50608	8.39E-06
0.750	1.50678	8.93E-06
0.755	1.50522	9.50E-06
0.760	1.50600	1.01E-05
0.765	1.50631	1.07E-05
0.770	1.50476	1.14E-05
0.775	1.50748	1.21E-05
0.780	1.50585	1.28E-05
0.785	1.50608	1.35E-05
0.790	1.50623	1.43E-05
0.795	1.50678	1.51E-05
0.800	1.50631	1.59E-05
0.805	1.50732	1.67E-05
0.810	1.50577	1.76E-05
0.815	1.50413	1.85E-05
0.820	1.50818	1.93E-05
0.825	1.50452	2.03E-05
0.830	1.50569	2.13E-05
0.835	1.50343	2.22E-05
0.840	1.50078	2.32E-05
0.845	1.50507	2.42E-05
0.850	1.50133	2.54E-05
0.855	1.50600	2.73E-05
0.860	1.50289	2.84E-05
0.865	1.50585	2.96E-05
0.870	1.50078	3.08E-05
0.875	1.50312	3.19E-05
0.880	1.50647	3.30E-05
0.885	1.50398	3.42E-05
0.890	1.50156	3.54E-05
0.895	1.50460	3.66E-05
0.900	1.50639	3.78E-05
0.905	1.50421	3.90E-05
0.910	1.50289	4.02E-05
0.915	1.50468	4.15E-05
0.920	1.50491	4.27E-05
0.925	1.50483	4.40E-05
0.930	1.50499	4.52E-05
0.935	1.50569	4.65E-05
0.940	1.50460	4.77E-05
0.945	1.50351	4.90E-05
0.950	1.50437	5.03E-05
0.955	1.50258	5.15E-05
0.960	1.50429	5.28E-05
0.965	1.50460	5.41E-05
0.970	1.50515	5.53E-05
0.975	1.50304	5.66E-05
0.980	1.50452	5.77E-05
0.985	1.50234	5.90E-05
0.990	1.50320	6.02E-05
0.995	1.50289	6.13E-05
1.000	1.50483	6.25E-05
1.005	1.50203	6.37E-05
1.010	1.50273	6.49E-05
1.015	1.50328	6.61E-05
1.020	1.50219	6.72E-05
1.025	1.50297	6.84E-05
1.030	1.50250	6.95E-05
1.035	1.50141	7.06E-05
1.040	1.50374	7.15E-05
1.045	1.50343	7.26E-05
1.050	1.50133	7.36E-05
1.055	1.50187	7.45E-05
1.060	1.50273	7.56E-05
1.065	1.50164	7.65E-05
1.070	1.50148	7.76E-05
1.075	1.50226	7.85E-05
1.080	1.50187	7.93E-05
1.085	1.50102	8.01E-05
1.090	1.50055	8.10E-05
1.095	1.50164	8.19E-05
1.100	1.50320	8.27E-05
1.105	1.50039	8.34E-05
1.110	1.50070	8.41E-05
1.115	1.50328	8.49E-05
1.120	1.50070	8.57E-05
1.125	1.50047	8.64E-05
1.130	1.50133	8.72E-05
1.135	1.50047	8.77E-05
1.140	1.49945	8.83E-05
1.145	1.50195	8.92E-05
1.150	1.50016	8.98E-05
1.155	1.50000	9.03E-05
1.160	1.49984	9.09E-05
1.165	1.49891	9.14E-05
1.170	1.50031	9.21E-05
1.175	1.50008	9.24E-05
1.180	1.49922	9.29E-05
1.185	1.49969	9.34E-05
1.190	1.49984	9.39E-05
1.195	1.49937	9.42E-05
1.200	1.49953	9.48E-05
1.205	1.49789	9.53E-05
1.210	1.49969	9.57E-05
1.215	1.49961	9.60E-05
1.220	1.49820	9.65E-05
1.225	1.49891	9.69E-05
1.230	1.49875	9.72E-05
1.235	1.49851	9.75E-05
1.240	1.49937	9.79E-05
1.245	1.50086	9.82E-05
1.250	1.50023	9.84E-05
1.255	1.49945	9.87E-05
1.260	1.49906	9.90E-05
1.265	1.49844	9.93E-05
1.270	1.49914	9.95E-05
1.275	1.49945	9.98E-05
1.280	1.49820	1.00E-04
1.285	1.49883	1.00E-04
1.290	1.49898	1.00E-04
1.295	1.49930	1.01E-04
1.300	1.49812	1.01E-04
1.305	1.49789	1.01E-04
1.310	1.49851	1.01E-04
1.315	1.49898	1.01E-04
1.320	1.49992	1.01E-04
1.325	1.49711	1.02E-04
1.330	1.49891	1.01E-04
1.335	1.49742	1.02E-04
1.340	1.49750	1.02E-04
1.345	1.49679	1.02E-04
1.350	1.49891	1.02E-04
1.355	1.49726	1.02E-04
1.360	1.49664	1.02E-04
1.365	1.49593	1.02E-04
1.370	1.49671	1.02E-04
1.375	1.49742	1.02E-04
1.380	1.49687	1.02E-04
1.385	1.49515	1.02E-04
1.390	1.49726	1.02E-04
1.395	1.49617	1.02E-04
1.400	1.49726	1.02E-04
1.405	1.49640	1.02E-04
1.410	1.49585	1.02E-04
1.415	1.49711	1.02E-04
1.420	1.49624	1.03E-04
1.425	1.49585	1.02E-04
1.430	1.49593	1.03E-04
1.435	1.49570	1.02E-04
1.440	1.49617	1.02E-04
1.445	1.49656	1.02E-04
1.450	1.49515	1.02E-04
1.455	1.49648	1.02E-04
1.460	1.49601	1.02E-04
1.465	1.49444	1.01E-04
1.470	1.49444	1.01E-04
1.475	1.49468	1.01E-04
1.480	1.49515	1.00E-04
1.485	1.49570	1.00E-04
1.490	1.49483	1.00E-04
1.495	1.49421	9.97E-05
1.500	1.49570	9.95E-05
1.505	1.49538	9.92E-05
1.510	1.49475	9.89E-05
1.515	1.49530	9.87E-05
1.520	1.49617	9.84E-05
1.525	1.49523	9.82E-05
1.530	1.49428	9.78E-05
1.535	1.49491	9.75E-05
1.540	1.49601	9.73E-05
1.545	1.49397	9.69E-05
1.550	1.49491	9.66E-05
1.555	1.49397	9.63E-05
1.560	1.49397	9.60E-05
1.565	1.49460	9.57E-05
1.570	1.49413	9.54E-05
1.575	1.49326	9.51E-05
1.580	1.49475	9.48E-05
1.585	1.49318	9.45E-05
1.590	1.49413	9.42E-05
1.595	1.49436	9.39E-05
1.600	1.49507	9.36E-05
1.605	1.49358	9.33E-05
1.610	1.49483	9.29E-05
1.615	1.49326	9.27E-05
1.620	1.49342	9.26E-05
1.625	1.49358	9.22E-05
1.630	1.49397	9.20E-05
1.635	1.49248	9.17E-05
1.640	1.49381	9.15E-05
1.645	1.49358	9.13E-05
1.650	1.49318	9.10E-05
1.655	1.49295	9.09E-05
1.660	1.49256	9.05E-05
1.665	1.49358	9.04E-05
1.670	1.49193	9.03E-05
1.675	1.49287	9.01E-05
1.680	1.49303	8.99E-05
1.685	1.49138	8.98E-05
1.690	1.49311	8.96E-05
1.695	1.49122	8.95E-05
1.700	1.49232	8.95E-05
1.705	1.49185	8.94E-05
1.710	1.49145	8.93E-05
1.715	1.49326	8.93E-05
1.720	1.49153	8.92E-05
1.725	1.49232	8.93E-05
1.730	1.49232	8.91E-05
1.735	1.49177	8.92E-05
1.740	1.49279	8.91E-05
1.745	1.49201	8.92E-05
1.750	1.49208	8.92E-05
1.755	1.49248	8.93E-05
1.760	1.49185	8.93E-05
1.765	1.49240	8.95E-05
1.770	1.49248	8.96E-05
1.775	1.49153	8.97E-05
1.780	1.49177	8.99E-05
1.785	1.49090	9.01E-05
1.790	1.49138	9.02E-05
1.795	1.49161	9.03E-05
1.800	1.49020	9.06E-05
1.805	1.49027	9.08E-05
1.810	1.49193	9.10E-05
1.815	1.49012	9.14E-05
1.820	1.49004	9.15E-05
1.825	1.49350	9.18E-05
1.830	1.49027	9.21E-05
1.835	1.49020	9.24E-05
1.840	1.49138	9.28E-05
1.845	1.48901	9.31E-05
1.850	1.49098	9.34E-05
1.855	1.48759	9.38E-05
1.860	1.48673	9.41E-05
1.865	1.49098	9.44E-05
1.870	1.49027	9.49E-05
1.875	1.49059	9.52E-05
1.880	1.48964	9.57E-05
1.885	1.48736	9.61E-05
1.890	1.48728	9.65E-05
1.895	1.49216	9.68E-05
1.900	1.48633	9.74E-05
1.905	1.48854	9.78E-05
1.910	1.48799	9.83E-05
1.915	1.48949	9.87E-05
1.920	1.48957	9.92E-05
1.925	1.48665	9.97E-05
1.930	1.48483	1.00E-04
1.935	1.48570	1.01E-04
1.940	1.48594	1.01E-04
1.945	1.48427	1.02E-04
1.950	1.48491	1.02E-04
1.955	1.48917	1.03E-04
1.960	1.48293	1.03E-04
1.965	1.48420	1.04E-04
1.970	1.48443	1.04E-04
1.975	1.48467	1.05E-04
1.980	1.48475	1.05E-04
1.985	1.48917	1.06E-04
1.990	1.48507	1.06E-04
1.995	1.48838	1.07E-04
2.000	1.48570	1.07E-04
