Material: isuzu / filter / ITY385
Optical constants. Data kindly provided by Koichiro Ikeda, ISUZU GLASS LTD. Nov 2024. See also Isuzu Glass Products
Comments: UV sharp cut filter (ITY series). Glass type: SiO2-B2O3.
Properties: {"nd": 1.485, "Vd": 97.0, "density": [{"value": 2300}], "thermal_expansion": [{"temperature_range": "373 573", "value": 5.3e-06}], "transformation_temperature": [{"value": 771}], "durability": 6, "hardness": [{"type": "Knoop", "value": "4.63e9"}]}
wavelength (um)	n	k
0.300	1.50367	1.35E-04
0.304	1.50686	1.44E-04
0.308	1.49177	1.40E-04
0.312	1.50219	1.56E-04
0.316	1.50686	1.77E-04
0.320	1.49624	1.71E-04
0.324	1.49671	1.80E-04
0.328	1.49562	2.10E-04
0.332	1.49248	1.87E-04
0.336	1.49609	2.11E-04
0.340	1.49867	2.01E-04
0.344	1.50226	2.19E-04
0.348	1.50452	2.06E-04
0.352	1.50335	2.32E-04
0.356	1.49898	2.00E-04
0.360	1.50343	1.97E-04
0.364	1.50078	2.00E-04
0.368	1.49969	1.86E-04
0.372	1.50242	1.75E-04
0.376	1.49734	1.86E-04
0.380	1.49773	8.55E-05
0.384	1.50109	2.90E-05
0.388	1.49945	7.62E-06
0.392	1.49945	2.31E-06
0.396	1.49452	1.29E-06
0.400	1.49640	9.81E-07
0.404	1.49523	9.22E-07
0.408	1.49287	8.87E-07
0.412	1.49444	8.69E-07
0.416	1.49311	6.98E-07
0.420	1.49593	7.09E-07
0.424	1.49452	6.46E-07
0.428	1.49358	6.12E-07
0.432	1.49271	5.85E-07
0.436	1.49256	5.16E-07
0.440	1.49279	6.21E-07
0.444	1.49177	5.37E-07
0.448	1.49020	3.86E-07
0.452	1.49051	4.48E-07
0.456	1.49177	4.93E-07
0.460	1.48964	4.34E-07
0.464	1.49004	3.86E-07
0.468	1.49090	4.04E-07
0.472	1.48933	3.81E-07
0.476	1.49027	3.97E-07
0.480	1.48949	4.07E-07
0.484	1.48893	4.55E-07
0.488	1.48917	3.77E-07
0.492	1.48917	4.03E-07
0.496	1.48870	3.10E-07
0.500	1.48878	3.70E-07
0.504	1.48799	4.60E-07
0.508	1.48822	3.49E-07
0.512	1.48767	3.64E-07
0.516	1.48775	2.67E-07
0.520	1.48815	3.16E-07
0.524	1.48736	3.18E-07
0.528	1.48751	3.39E-07
0.532	1.48704	2.94E-07
0.536	1.48680	2.76E-07
0.540	1.48728	2.85E-07
0.544	1.48688	1.77E-07
0.548	1.48720	2.48E-07
0.552	1.48680	2.66E-07
0.556	1.48641	2.24E-07
0.560	1.48657	3.32E-07
0.564	1.48625	3.58E-07
0.568	1.48617	3.80E-07
0.572	1.48570	4.00E-07
0.576	1.48562	3.59E-07
0.580	1.48594	4.03E-07
0.584	1.48594	3.85E-07
0.588	1.48522	3.86E-07
0.592	1.48546	4.14E-07
0.596	1.48522	4.19E-07
0.600	1.48546	4.40E-07
0.604	1.48530	4.51E-07
0.608	1.48499	4.86E-07
0.612	1.48483	4.98E-07
0.616	1.48483	4.97E-07
0.620	1.48427	5.34E-07
0.624	1.48443	5.66E-07
0.628	1.48459	6.40E-07
0.632	1.48443	5.43E-07
0.636	1.48420	5.95E-07
0.640	1.48388	5.36E-07
0.644	1.48404	6.18E-07
0.648	1.48356	6.47E-07
0.652	1.48364	6.54E-07
0.656	1.48420	7.51E-07
0.660	1.48404	6.84E-07
0.664	1.48380	6.99E-07
0.668	1.48420	6.18E-07
0.672	1.48412	8.15E-07
0.676	1.48420	7.39E-07
0.680	1.48372	7.51E-07
0.684	1.48356	8.43E-07
0.688	1.48356	9.06E-07
0.692	1.48317	9.57E-07
0.696	1.48340	8.87E-07
0.700	1.48317	8.52E-07
0.704	1.48237	1.01E-06
0.708	1.48332	1.01E-06
0.712	1.48277	9.25E-07
0.716	1.48261	9.75E-07
0.720	1.48301	8.87E-07
0.724	1.48253	9.04E-07
0.728	1.48277	1.06E-06
0.732	1.48269	9.35E-07
0.736	1.48301	9.25E-07
0.740	1.48261	1.00E-06
0.744	1.48340	8.11E-07
0.748	1.48221	9.36E-07
0.752	1.48309	9.77E-07
0.756	1.48293	1.10E-06
0.760	1.48206	1.08E-06
0.764	1.48285	1.13E-06
0.768	1.48293	1.14E-06
0.772	1.48150	1.00E-06
0.776	1.48221	1.10E-06
0.780	1.48253	1.22E-06
0.784	1.48253	8.33E-07
0.788	1.48253	8.86E-07
0.792	1.48253	1.20E-06
0.796	1.48174	9.59E-07
0.800	1.48285	1.03E-06
0.804	1.48134	1.18E-06
0.808	1.48190	1.20E-06
0.812	1.48340	9.89E-07
0.816	1.48340	1.04E-06
0.820	1.48229	1.16E-06
0.824	1.48324	1.21E-06
0.828	1.48063	9.77E-07
0.832	1.48118	1.14E-06
0.836	1.48190	9.53E-07
0.840	1.48340	8.33E-07
0.844	1.48309	1.10E-06
0.848	1.48340	1.21E-06
0.852	1.48245	1.29E-06
0.856	1.48317	1.23E-06
0.860	1.48309	1.23E-06
0.864	1.48364	1.14E-06
0.868	1.48031	1.37E-06
0.872	1.48063	1.30E-06
0.876	1.48174	1.16E-06
0.880	1.48277	1.27E-06
0.884	1.48087	1.41E-06
0.888	1.48110	1.25E-06
0.892	1.48261	1.18E-06
0.896	1.48412	8.78E-07
0.900	1.48435	1.10E-06
0.904	1.48206	1.44E-06
0.908	1.48269	1.31E-06
0.912	1.48483	1.18E-06
0.916	1.48356	1.25E-06
0.920	1.48388	1.11E-06
0.924	1.48253	1.17E-06
0.928	1.48277	1.23E-06
0.932	1.48158	1.29E-06
0.936	1.48102	1.21E-06
0.940	1.48206	1.11E-06
0.944	1.48142	1.22E-06
0.948	1.48134	1.26E-06
0.952	1.48134	1.25E-06
0.956	1.48309	1.28E-06
0.960	1.48182	1.08E-06
0.964	1.48142	1.19E-06
0.968	1.48071	1.25E-06
0.972	1.48118	1.10E-06
0.976	1.48142	1.12E-06
0.980	1.48134	1.13E-06
0.984	1.48126	1.15E-06
0.988	1.48206	1.19E-06
0.992	1.48031	1.11E-06
0.996	1.48182	1.08E-06
1.000	1.47999	1.15E-06
1.004	1.48380	9.45E-07
1.008	1.48198	1.05E-06
1.012	1.48095	1.02E-06
1.016	1.48047	1.01E-06
1.020	1.48071	9.50E-07
1.024	1.48095	1.15E-06
1.028	1.48102	9.27E-07
1.032	1.48055	9.21E-07
1.036	1.48031	9.27E-07
1.040	1.48031	1.01E-06
1.044	1.47888	8.59E-07
1.048	1.47999	9.02E-07
1.052	1.48047	1.01E-06
1.056	1.47999	8.44E-07
1.060	1.47856	8.94E-07
1.064	1.47872	1.01E-06
1.068	1.47952	9.56E-07
1.072	1.48007	8.71E-07
1.076	1.48126	9.48E-07
1.080	1.47880	9.36E-07
1.084	1.47896	9.01E-07
1.088	1.47912	7.89E-07
1.092	1.47991	9.62E-07
1.096	1.48031	7.79E-07
1.100	1.47880	7.98E-07
1.104	1.47808	9.53E-07
1.108	1.47991	8.76E-07
1.112	1.47959	9.12E-07
1.116	1.48007	8.11E-07
1.120	1.47959	8.19E-07
1.124	1.47959	7.11E-07
1.128	1.47912	7.21E-07
1.132	1.47896	7.81E-07
1.136	1.47856	9.38E-07
1.140	1.47904	9.39E-07
1.144	1.47991	7.63E-07
1.148	1.47800	9.09E-07
1.152	1.47753	9.41E-07
1.156	1.47848	8.85E-07
1.160	1.47816	7.38E-07
1.164	1.47872	7.61E-07
1.168	1.47896	7.14E-07
1.172	1.47769	7.76E-07
1.176	1.47777	7.98E-07
1.180	1.47975	5.98E-07
1.184	1.47761	6.37E-07
1.188	1.47808	6.59E-07
1.192	1.47777	8.06E-07
1.196	1.47832	7.82E-07
1.200	1.47769	7.97E-07
1.204	1.47888	6.95E-07
1.208	1.47824	8.68E-07
1.212	1.47777	8.51E-07
1.216	1.47761	7.92E-07
1.220	1.47753	7.91E-07
1.224	1.47880	7.50E-07
1.228	1.47808	7.32E-07
1.232	1.47959	7.07E-07
1.236	1.47689	7.32E-07
1.240	1.47737	7.61E-07
1.244	1.47641	7.53E-07
1.248	1.47737	6.86E-07
1.252	1.47697	7.60E-07
1.256	1.47721	6.83E-07
1.260	1.47824	6.85E-07
1.264	1.47840	7.04E-07
1.268	1.47824	7.26E-07
1.272	1.47609	5.24E-07
1.276	1.47641	5.76E-07
1.280	1.47753	7.15E-07
1.284	1.47673	9.36E-07
1.288	1.47769	9.06E-07
1.292	1.47737	7.19E-07
1.296	1.47769	5.72E-07
1.300	1.47705	7.31E-07
1.304	1.47713	5.00E-07
1.308	1.47617	7.07E-07
1.312	1.47713	6.08E-07
1.316	1.47577	5.65E-07
1.320	1.47673	7.61E-07
1.324	1.47601	5.54E-07
1.328	1.47593	7.69E-07
1.332	1.47625	6.36E-07
1.336	1.47657	7.77E-07
1.340	1.47681	6.83E-07
1.344	1.47545	6.15E-07
1.348	1.47601	5.50E-07
1.352	1.47617	5.96E-07
1.356	1.47633	6.33E-07
1.360	1.47625	5.68E-07
1.364	1.47569	5.74E-07
1.368	1.47522	6.48E-07
1.372	1.47442	6.66E-07
1.376	1.47601	7.08E-07
1.380	1.47593	8.54E-07
1.384	1.47561	9.22E-07
1.388	1.47553	7.76E-07
1.392	1.47601	1.30E-06
1.396	1.47466	1.39E-06
1.400	1.47378	1.38E-06
1.404	1.47442	1.59E-06
1.408	1.47506	1.47E-06
1.412	1.47362	1.51E-06
1.416	1.47354	1.69E-06
1.420	1.47418	1.40E-06
1.424	1.47274	1.30E-06
1.428	1.47434	1.31E-06
1.432	1.47426	1.29E-06
1.436	1.47394	1.21E-06
1.440	1.47370	1.10E-06
1.444	1.47346	1.13E-06
1.448	1.47274	1.07E-06
1.452	1.47298	9.66E-07
1.456	1.47170	9.79E-07
1.460	1.47242	9.03E-07
1.464	1.47290	6.63E-07
1.468	1.47258	8.57E-07
1.472	1.47234	8.70E-07
1.476	1.47242	1.02E-06
1.480	1.47162	8.80E-07
1.484	1.47074	8.95E-07
1.488	1.47226	8.53E-07
1.492	1.47186	6.83E-07
1.496	1.47162	9.73E-07
1.500	1.47146	1.10E-06
