Material: isuzu / filter / IUV380W
Optical constants. Data kindly provided by Koichiro Ikeda, ISUZU GLASS LTD. Nov 2024. See also Isuzu Glass Products
Comments: UV transmitting filter, Visible absorbing filter (IUV series).
wavelength (um)	n	k
0.200	1.66475	4.25E-05
0.205	1.63223	4.73E-05
0.210	1.63583	5.48E-05
0.215	1.62493	6.01E-05
0.220	1.61928	7.32E-05
0.225	1.61267	6.52E-05
0.230	1.60341	6.67E-05
0.235	1.59982	7.02E-05
0.240	1.59601	7.06E-05
0.245	1.59447	7.46E-05
0.250	1.59109	7.61E-05
0.255	1.58762	7.94E-05
0.260	1.58467	8.33E-05
0.265	1.58090	8.49E-05
0.270	1.57928	8.65E-05
0.275	1.57646	9.16E-05
0.280	1.57245	8.98E-05
0.285	1.57052	9.14E-05
0.290	1.56806	9.66E-05
0.295	1.56731	9.46E-05
0.300	1.56388	7.20E-05
0.305	1.56029	5.24E-05
0.310	1.55916	3.72E-05
0.315	1.55751	2.65E-05
0.320	1.55804	1.89E-05
0.325	1.55474	1.34E-05
0.330	1.55526	9.72E-06
0.335	1.55444	7.11E-06
0.340	1.55444	5.22E-06
0.345	1.55474	3.99E-06
0.350	1.55286	3.14E-06
0.355	1.55203	2.60E-06
0.360	1.55165	2.27E-06
0.365	1.55143	2.16E-06
0.370	1.54939	2.31E-06
0.375	1.54811	2.82E-06
0.380	1.54736	3.97E-06
0.385	1.54690	6.17E-06
0.390	1.54554	1.00E-05
0.395	1.54486	1.61E-05
0.400	1.54426	2.52E-05
0.405	1.54350	3.73E-05
0.410	1.54274	5.21E-05
0.415	1.54236	6.92E-05
0.420	1.54146	8.67E-05
0.425	1.54017	1.04E-04
0.430	1.54009	1.18E-04
0.435	1.53979	1.28E-04
0.440	1.53926	1.32E-04
0.445	1.53895	1.31E-04
0.450	1.53819	1.31E-04
0.455	1.53758	1.24E-04
0.460	1.53766	1.16E-04
0.465	1.53736	1.06E-04
0.470	1.53667	9.61E-05
0.475	1.53576	8.76E-05
0.480	1.53530	8.06E-05
0.485	1.53477	7.53E-05
0.490	1.53416	7.15E-05
0.495	1.53355	6.96E-05
0.500	1.53325	6.96E-05
0.505	1.53309	7.03E-05
0.510	1.53218	7.20E-05
0.515	1.53264	7.50E-05
0.520	1.53165	7.87E-05
0.525	1.53157	8.22E-05
0.530	1.53134	8.43E-05
0.535	1.53157	8.48E-05
0.540	1.53073	8.36E-05
0.545	1.53073	8.13E-05
0.550	1.53012	7.98E-05
0.555	1.53020	8.01E-05
0.560	1.53012	8.28E-05
0.565	1.53004	8.86E-05
0.570	1.52920	9.70E-05
0.575	1.52905	1.04E-04
0.580	1.52935	1.07E-04
0.585	1.52890	1.08E-04
0.590	1.52874	1.09E-04
0.595	1.52867	1.08E-04
0.600	1.52805	1.07E-04
0.605	1.52805	1.06E-04
0.610	1.52805	1.07E-04
0.615	1.52760	1.09E-04
0.620	1.52721	1.12E-04
0.625	1.52729	1.14E-04
0.630	1.52760	1.13E-04
0.635	1.52737	1.10E-04
0.640	1.52691	1.04E-04
0.645	1.52683	9.64E-05
0.650	1.52637	8.77E-05
0.655	1.52645	7.86E-05
0.660	1.52629	7.03E-05
0.665	1.52553	6.36E-05
0.670	1.52469	5.87E-05
0.675	1.52399	5.56E-05
0.680	1.52415	5.41E-05
0.685	1.52369	5.38E-05
0.690	1.52376	5.44E-05
0.695	1.52369	5.58E-05
0.700	1.52376	5.80E-05
0.705	1.52392	6.04E-05
0.710	1.52369	6.28E-05
0.715	1.52376	6.56E-05
0.720	1.52369	6.89E-05
0.725	1.52346	7.26E-05
0.730	1.52369	7.65E-05
0.735	1.52315	8.07E-05
0.740	1.52346	8.49E-05
0.745	1.52346	8.92E-05
0.750	1.52323	9.35E-05
0.755	1.52300	9.77E-05
0.760	1.52315	1.02E-04
0.765	1.52277	1.06E-04
0.770	1.52361	1.11E-04
0.775	1.52338	1.15E-04
0.780	1.52300	1.20E-04
0.785	1.52292	1.24E-04
0.790	1.52284	1.28E-04
0.795	1.52323	1.32E-04
0.800	1.52292	1.36E-04
0.805	1.52269	1.40E-04
0.810	1.52231	1.44E-04
0.815	1.52192	1.48E-04
0.820	1.52185	1.51E-04
0.825	1.52161	1.55E-04
0.830	1.52092	1.58E-04
0.835	1.52146	1.61E-04
0.840	1.52169	1.64E-04
0.845	1.52269	1.66E-04
0.850	1.51259	1.81E-04
0.855	1.50662	2.03E-04
0.860	1.50577	2.25E-04
0.865	1.50367	2.19E-04
0.870	1.50639	2.27E-04
0.875	1.50748	2.62E-04
0.880	1.50577	2.42E-04
0.885	1.50701	2.38E-04
0.890	1.50670	2.36E-04
0.895	1.50507	3.18E-04
0.900	1.50864	3.00E-04
0.905	1.50787	2.29E-04
0.910	1.50553	2.55E-04
0.915	1.50717	2.46E-04
0.920	1.50476	2.87E-04
0.925	1.50895	2.57E-04
0.930	1.50491	2.67E-04
0.935	1.50740	2.68E-04
0.940	1.50888	2.44E-04
0.945	1.50701	2.36E-04
0.950	1.50647	2.44E-04
0.955	1.50585	2.21E-04
0.960	1.50833	2.16E-04
0.965	1.50724	2.13E-04
0.970	1.50763	2.15E-04
0.975	1.50794	2.09E-04
0.980	1.50553	2.08E-04
0.985	1.50771	2.02E-04
0.990	1.50468	2.00E-04
0.995	1.50623	1.99E-04
1.000	1.50569	1.95E-04
1.005	1.50709	1.90E-04
1.010	1.50452	1.91E-04
1.015	1.50569	1.87E-04
1.020	1.50872	1.85E-04
1.025	1.50538	1.84E-04
1.030	1.50864	1.79E-04
1.035	1.50787	1.78E-04
1.040	1.50670	1.75E-04
1.045	1.50468	1.74E-04
1.050	1.50577	1.72E-04
1.055	1.50717	1.70E-04
1.060	1.50499	1.69E-04
1.065	1.50421	1.66E-04
1.070	1.50561	1.65E-04
1.075	1.50553	1.64E-04
1.080	1.50639	1.62E-04
1.085	1.50600	1.60E-04
1.090	1.50631	1.60E-04
1.095	1.50546	1.59E-04
1.100	1.50577	1.57E-04
1.105	1.50717	1.57E-04
1.110	1.50623	1.56E-04
1.115	1.50623	1.54E-04
1.120	1.50709	1.54E-04
1.125	1.50445	1.53E-04
1.130	1.50546	1.52E-04
1.135	1.50553	1.52E-04
1.140	1.50538	1.51E-04
1.145	1.50678	1.51E-04
1.150	1.50647	1.50E-04
1.155	1.50413	1.50E-04
1.160	1.50561	1.49E-04
1.165	1.50390	1.49E-04
1.170	1.50569	1.49E-04
1.175	1.50802	1.48E-04
1.180	1.50148	1.48E-04
1.185	1.50437	1.48E-04
1.190	1.50187	1.47E-04
1.195	1.50390	1.47E-04
1.200	1.50499	1.47E-04
1.205	1.50234	1.47E-04
1.210	1.50452	1.47E-04
1.215	1.50211	1.46E-04
1.220	1.50133	1.46E-04
1.225	1.50180	1.46E-04
1.230	1.50312	1.46E-04
1.235	1.50250	1.46E-04
1.240	1.50499	1.45E-04
1.245	1.50258	1.45E-04
1.250	1.50297	1.45E-04
1.255	1.50374	1.45E-04
1.260	1.50421	1.44E-04
1.265	1.50133	1.44E-04
1.270	1.50382	1.44E-04
1.275	1.50094	1.44E-04
1.280	1.50413	1.43E-04
1.285	1.50055	1.43E-04
1.290	1.50343	1.43E-04
1.295	1.50592	1.42E-04
1.300	1.50156	1.42E-04
1.305	1.50219	1.41E-04
1.310	1.50320	1.41E-04
1.315	1.50273	1.40E-04
1.320	1.50374	1.40E-04
1.325	1.50039	1.39E-04
1.330	1.50242	1.38E-04
1.335	1.50148	1.37E-04
1.340	1.50094	1.37E-04
1.345	1.50031	1.36E-04
1.350	1.50304	1.35E-04
1.355	1.49922	1.35E-04
1.360	1.50102	1.34E-04
1.365	1.50031	1.33E-04
1.370	1.50141	1.32E-04
1.375	1.49984	1.32E-04
1.380	1.50219	1.31E-04
1.385	1.50055	1.30E-04
1.390	1.50086	1.30E-04
1.395	1.50156	1.29E-04
1.400	1.49859	1.28E-04
1.405	1.50304	1.28E-04
1.410	1.50226	1.28E-04
1.415	1.50265	1.27E-04
1.420	1.50148	1.27E-04
1.425	1.50094	1.26E-04
1.430	1.49945	1.26E-04
1.435	1.50055	1.26E-04
1.440	1.50211	1.25E-04
1.445	1.50008	1.25E-04
1.450	1.50055	1.24E-04
1.455	1.50297	1.24E-04
1.460	1.49898	1.24E-04
1.465	1.50219	1.23E-04
1.470	1.50047	1.23E-04
1.475	1.50047	1.23E-04
1.480	1.49992	1.23E-04
1.485	1.50109	1.22E-04
1.490	1.49906	1.22E-04
1.495	1.49859	1.22E-04
1.500	1.50125	1.21E-04
1.505	1.49859	1.21E-04
1.510	1.50008	1.21E-04
1.515	1.50133	1.20E-04
1.520	1.49914	1.20E-04
1.525	1.50047	1.20E-04
1.530	1.49789	1.20E-04
1.535	1.49930	1.19E-04
1.540	1.50078	1.19E-04
1.545	1.49820	1.19E-04
1.550	1.49711	1.18E-04
1.555	1.49859	1.18E-04
1.560	1.49844	1.18E-04
1.565	1.50062	1.17E-04
1.570	1.49844	1.17E-04
1.575	1.49930	1.17E-04
1.580	1.50047	1.16E-04
1.585	1.49851	1.16E-04
1.590	1.49883	1.16E-04
1.595	1.49875	1.15E-04
1.600	1.49922	1.15E-04
1.605	1.49820	1.15E-04
1.610	1.50070	1.15E-04
1.615	1.50086	1.14E-04
1.620	1.50062	1.14E-04
1.625	1.49632	1.14E-04
1.630	1.49671	1.14E-04
1.635	1.49546	1.13E-04
1.640	1.50219	1.13E-04
1.645	1.49687	1.13E-04
1.650	1.50117	1.13E-04
1.655	1.49609	1.13E-04
1.660	1.49726	1.13E-04
1.665	1.49671	1.12E-04
1.670	1.49765	1.12E-04
1.675	1.49413	1.12E-04
1.680	1.49726	1.12E-04
1.685	1.49695	1.12E-04
1.690	1.49546	1.12E-04
1.695	1.49859	1.13E-04
1.700	1.49609	1.12E-04
1.705	1.49687	1.13E-04
1.710	1.49593	1.13E-04
1.715	1.49695	1.13E-04
1.720	1.49475	1.13E-04
1.725	1.49640	1.14E-04
1.730	1.49679	1.14E-04
1.735	1.49491	1.14E-04
1.740	1.49523	1.14E-04
1.745	1.49562	1.14E-04
1.750	1.49711	1.15E-04
1.755	1.49468	1.15E-04
1.760	1.49436	1.15E-04
1.765	1.49546	1.15E-04
1.770	1.49515	1.16E-04
1.775	1.49334	1.16E-04
1.780	1.49679	1.16E-04
1.785	1.49742	1.17E-04
1.790	1.49460	1.17E-04
1.795	1.49734	1.18E-04
1.800	1.49452	1.18E-04
1.805	1.49397	1.18E-04
1.810	1.49342	1.18E-04
1.815	1.49491	1.19E-04
1.820	1.49483	1.19E-04
1.825	1.49624	1.19E-04
1.830	1.49515	1.19E-04
1.835	1.49452	1.20E-04
1.840	1.49397	1.20E-04
1.845	1.49515	1.20E-04
1.850	1.49208	1.20E-04
1.855	1.49373	1.21E-04
1.860	1.49444	1.21E-04
1.865	1.49232	1.21E-04
1.870	1.49161	1.21E-04
1.875	1.49389	1.21E-04
1.880	1.49381	1.21E-04
1.885	1.49193	1.22E-04
1.890	1.49381	1.21E-04
1.895	1.49491	1.21E-04
1.900	1.49130	1.22E-04
1.905	1.49106	1.22E-04
1.910	1.49318	1.22E-04
1.915	1.49358	1.22E-04
1.920	1.49067	1.22E-04
1.925	1.49538	1.22E-04
1.930	1.49263	1.22E-04
1.935	1.49043	1.22E-04
1.940	1.49483	1.22E-04
1.945	1.49373	1.22E-04
1.950	1.49185	1.22E-04
1.955	1.49216	1.22E-04
1.960	1.49193	1.21E-04
1.965	1.49208	1.21E-04
1.970	1.49326	1.21E-04
1.975	1.49075	1.21E-04
1.980	1.49138	1.21E-04
1.985	1.49130	1.21E-04
1.990	1.49020	1.21E-04
1.995	1.49373	1.21E-04
2.000	1.49271	1.21E-04
