Material: isuzu / filter / IVG540
Optical constants. Data kindly provided by Koichiro Ikeda, ISUZU GLASS LTD. Nov 2024. See also Isuzu Glass Products
Comments: Green filter (IVG series).
wavelength (um)	n	k
0.200	-8.60123	1.31E-04
0.205	3.69056	1.37E-04
0.210	1.76950	1.45E-04
0.215	1.76840	1.49E-04
0.220	1.58998	1.55E-04
0.225	1.63461	1.54E-04
0.230	1.59711	1.63E-04
0.235	1.58024	1.65E-04
0.240	1.60640	1.70E-04
0.245	1.55819	1.71E-04
0.250	1.58076	1.76E-04
0.255	1.57676	1.79E-04
0.260	1.57081	1.82E-04
0.265	1.57431	1.86E-04
0.270	1.56291	1.89E-04
0.275	1.56940	1.93E-04
0.280	1.55646	1.95E-04
0.285	1.55931	1.99E-04
0.290	1.55774	2.02E-04
0.295	1.56455	2.06E-04
0.300	1.56223	2.10E-04
0.305	1.55082	2.12E-04
0.310	1.54259	2.15E-04
0.315	1.55886	2.20E-04
0.320	1.54788	2.22E-04
0.325	1.54501	2.26E-04
0.330	1.53424	2.28E-04
0.335	1.54448	2.33E-04
0.340	1.54168	2.36E-04
0.345	1.53941	2.39E-04
0.350	1.53720	2.42E-04
0.355	1.53812	2.46E-04
0.360	1.53910	2.49E-04
0.365	1.53546	2.52E-04
0.370	1.53355	2.56E-04
0.375	1.53340	2.41E-04
0.380	1.53416	2.20E-04
0.385	1.53210	2.00E-04
0.390	1.53165	1.75E-04
0.395	1.53302	1.70E-04
0.400	1.52928	1.61E-04
0.405	1.52767	1.48E-04
0.410	1.52882	1.36E-04
0.415	1.52897	1.24E-04
0.420	1.52721	1.13E-04
0.425	1.52591	1.04E-04
0.430	1.52645	9.51E-05
0.435	1.52515	8.67E-05
0.440	1.52353	7.85E-05
0.445	1.52453	7.04E-05
0.450	1.52399	6.28E-05
0.455	1.52522	5.54E-05
0.460	1.52423	4.85E-05
0.465	1.52461	4.22E-05
0.470	1.52284	3.65E-05
0.475	1.52384	3.17E-05
0.480	1.52192	2.76E-05
0.485	1.52092	2.43E-05
0.490	1.52046	2.16E-05
0.495	1.52123	1.93E-05
0.500	1.51969	1.75E-05
0.505	1.52046	1.61E-05
0.510	1.51892	1.50E-05
0.515	1.51908	1.41E-05
0.520	1.51923	1.34E-05
0.525	1.51831	1.29E-05
0.530	1.51838	1.27E-05
0.535	1.51746	1.26E-05
0.540	1.51800	1.27E-05
0.545	1.51761	1.31E-05
0.550	1.51738	1.36E-05
0.555	1.51676	1.44E-05
0.560	1.51730	1.54E-05
0.565	1.51622	1.67E-05
0.570	1.51599	1.82E-05
0.575	1.51653	2.01E-05
0.580	1.51622	2.22E-05
0.585	1.51607	2.47E-05
0.590	1.51514	2.76E-05
0.595	1.51568	3.07E-05
0.600	1.51522	3.42E-05
0.605	1.51499	3.79E-05
0.610	1.51507	4.19E-05
0.615	1.51383	4.62E-05
0.620	1.51414	5.07E-05
0.625	1.51375	5.53E-05
0.630	1.51414	6.01E-05
0.635	1.51429	6.50E-05
0.640	1.51414	6.99E-05
0.645	1.51406	7.50E-05
0.650	1.51337	8.00E-05
0.655	1.51453	8.52E-05
0.660	1.51337	9.03E-05
0.665	1.51221	9.55E-05
0.670	1.51306	1.01E-04
0.675	1.51159	1.06E-04
0.680	1.51182	1.11E-04
0.685	1.51151	1.16E-04
0.690	1.51221	1.21E-04
0.695	1.51182	1.26E-04
0.700	1.51205	1.31E-04
0.705	1.51066	1.36E-04
0.710	1.51190	1.41E-04
0.715	1.51151	1.46E-04
0.720	1.51321	1.51E-04
0.725	1.51197	1.56E-04
0.730	1.51066	1.61E-04
0.735	1.51027	1.66E-04
0.740	1.51190	1.70E-04
0.745	1.51159	1.75E-04
0.750	1.51120	1.80E-04
0.755	1.51205	1.85E-04
0.760	1.51136	1.89E-04
0.765	1.51151	1.94E-04
0.770	1.51228	1.98E-04
0.775	1.51120	2.02E-04
0.780	1.51128	2.07E-04
0.785	1.51058	2.10E-04
0.790	1.51097	2.14E-04
0.795	1.51182	2.18E-04
0.800	1.51019	2.22E-04
0.805	1.51151	2.25E-04
0.810	1.51066	2.29E-04
0.815	1.50794	2.31E-04
0.820	1.51228	2.34E-04
0.825	1.51213	2.37E-04
0.830	1.51290	2.39E-04
0.835	1.51228	2.42E-04
0.840	1.50856	2.43E-04
0.845	1.51213	2.45E-04
0.850	1.51329	2.59E-04
0.855	1.50639	2.73E-04
0.860	1.50880	2.74E-04
0.865	1.51166	2.72E-04
0.870	1.50538	2.69E-04
0.875	1.50872	2.79E-04
0.880	1.51066	2.79E-04
0.885	1.50903	2.75E-04
0.890	1.51043	2.77E-04
0.895	1.50678	2.70E-04
0.900	1.50872	2.66E-04
0.905	1.51027	2.64E-04
0.910	1.51097	2.61E-04
0.915	1.50934	2.55E-04
0.920	1.51174	2.54E-04
0.925	1.51058	2.54E-04
0.930	1.51066	2.48E-04
0.935	1.51012	2.43E-04
0.940	1.50771	2.38E-04
0.945	1.51043	2.37E-04
0.950	1.50965	2.36E-04
0.955	1.51089	2.30E-04
0.960	1.51012	2.27E-04
0.965	1.50787	2.24E-04
0.970	1.50988	2.22E-04
0.975	1.50911	2.19E-04
0.980	1.50825	2.13E-04
0.985	1.50880	2.11E-04
0.990	1.50903	2.09E-04
0.995	1.50794	2.06E-04
1.000	1.50787	2.02E-04
1.005	1.50825	2.00E-04
1.010	1.50763	1.97E-04
1.015	1.50724	1.94E-04
1.020	1.50724	1.92E-04
1.025	1.50724	1.90E-04
1.030	1.50818	1.87E-04
1.035	1.50717	1.85E-04
1.040	1.50841	1.82E-04
1.045	1.50693	1.81E-04
1.050	1.50732	1.78E-04
1.055	1.50655	1.76E-04
1.060	1.50903	1.73E-04
1.065	1.50833	1.71E-04
1.070	1.50639	1.69E-04
1.075	1.50740	1.67E-04
1.080	1.50655	1.65E-04
1.085	1.50686	1.63E-04
1.090	1.50561	1.61E-04
1.095	1.50452	1.59E-04
1.100	1.50655	1.57E-04
1.105	1.50678	1.56E-04
1.110	1.50678	1.54E-04
1.115	1.50623	1.52E-04
1.120	1.50577	1.50E-04
1.125	1.50577	1.49E-04
1.130	1.50577	1.47E-04
1.135	1.50608	1.45E-04
1.140	1.50631	1.44E-04
1.145	1.50398	1.42E-04
1.150	1.50413	1.40E-04
1.155	1.50631	1.39E-04
1.160	1.50522	1.37E-04
1.165	1.50522	1.36E-04
1.170	1.50460	1.34E-04
1.175	1.50561	1.33E-04
1.180	1.50546	1.31E-04
1.185	1.50577	1.30E-04
1.190	1.50491	1.29E-04
1.195	1.50398	1.27E-04
1.200	1.50483	1.26E-04
1.205	1.50452	1.24E-04
1.210	1.50273	1.23E-04
1.215	1.50437	1.21E-04
1.220	1.50445	1.20E-04
1.225	1.50320	1.19E-04
1.230	1.50476	1.17E-04
1.235	1.50413	1.16E-04
1.240	1.50452	1.15E-04
1.245	1.50445	1.13E-04
1.250	1.50429	1.12E-04
1.255	1.50335	1.11E-04
1.260	1.50429	1.09E-04
1.265	1.50382	1.08E-04
1.270	1.50546	1.07E-04
1.275	1.50382	1.05E-04
1.280	1.50351	1.04E-04
1.285	1.50250	1.03E-04
1.290	1.50328	1.02E-04
1.295	1.50359	1.01E-04
1.300	1.50304	9.93E-05
1.305	1.50343	9.81E-05
1.310	1.50312	9.69E-05
1.315	1.50211	9.57E-05
1.320	1.50289	9.46E-05
1.325	1.50219	9.34E-05
1.330	1.50367	9.22E-05
1.335	1.50335	9.10E-05
1.340	1.50094	9.00E-05
1.345	1.50250	8.90E-05
1.350	1.50125	8.80E-05
1.355	1.50226	8.68E-05
1.360	1.50031	8.57E-05
1.365	1.50086	8.46E-05
1.370	1.50195	8.35E-05
1.375	1.50062	8.25E-05
1.380	1.50250	8.15E-05
1.385	1.50125	8.05E-05
1.390	1.50156	7.94E-05
1.395	1.50289	7.84E-05
1.400	1.50047	7.75E-05
1.405	1.50164	7.65E-05
1.410	1.50031	7.56E-05
1.415	1.50109	7.47E-05
1.420	1.50109	7.38E-05
1.425	1.50039	7.30E-05
1.430	1.50219	7.20E-05
1.435	1.50117	7.11E-05
1.440	1.50226	7.02E-05
1.445	1.50055	6.94E-05
1.450	1.50133	6.85E-05
1.455	1.50086	6.76E-05
1.460	1.50172	6.68E-05
1.465	1.50164	6.59E-05
1.470	1.49961	6.51E-05
1.475	1.50000	6.43E-05
1.480	1.49977	6.34E-05
1.485	1.50187	6.27E-05
1.490	1.50023	6.19E-05
1.495	1.50000	6.11E-05
1.500	1.50047	6.03E-05
1.505	1.49922	5.96E-05
1.510	1.50062	5.89E-05
1.515	1.49937	5.81E-05
1.520	1.50016	5.74E-05
1.525	1.49984	5.67E-05
1.530	1.50102	5.60E-05
1.535	1.49969	5.53E-05
1.540	1.50109	5.47E-05
1.545	1.50000	5.41E-05
1.550	1.49851	5.34E-05
1.555	1.50047	5.28E-05
1.560	1.49953	5.22E-05
1.565	1.49969	5.16E-05
1.570	1.49883	5.09E-05
1.575	1.49867	5.04E-05
1.580	1.49859	4.98E-05
1.585	1.49836	4.93E-05
1.590	1.49750	4.87E-05
1.595	1.50008	4.82E-05
1.600	1.49875	4.76E-05
1.605	1.49875	4.72E-05
1.610	1.49805	4.67E-05
1.615	1.50031	4.61E-05
1.620	1.49867	4.57E-05
1.625	1.49953	4.52E-05
1.630	1.49812	4.48E-05
1.635	1.49953	4.43E-05
1.640	1.49867	4.38E-05
1.645	1.49859	4.34E-05
1.650	1.49914	4.30E-05
1.655	1.49797	4.26E-05
1.660	1.49977	4.22E-05
1.665	1.49797	4.18E-05
1.670	1.49844	4.15E-05
1.675	1.49844	4.11E-05
1.680	1.49797	4.08E-05
1.685	1.49812	4.04E-05
1.690	1.49930	4.01E-05
1.695	1.49750	3.98E-05
1.700	1.49703	3.95E-05
1.705	1.49836	3.91E-05
1.710	1.49570	3.89E-05
1.715	1.49695	3.86E-05
1.720	1.49797	3.83E-05
1.725	1.49523	3.81E-05
1.730	1.49711	3.78E-05
1.735	1.49601	3.75E-05
1.740	1.49664	3.72E-05
1.745	1.49617	3.70E-05
1.750	1.49742	3.68E-05
1.755	1.49726	3.65E-05
1.760	1.49624	3.64E-05
1.765	1.49664	3.62E-05
1.770	1.49773	3.59E-05
1.775	1.49742	3.57E-05
1.780	1.49648	3.55E-05
1.785	1.49656	3.54E-05
1.790	1.49797	3.51E-05
1.795	1.49538	3.49E-05
1.800	1.49624	3.48E-05
1.805	1.49554	3.46E-05
1.810	1.49609	3.44E-05
1.815	1.49523	3.43E-05
1.820	1.49695	3.41E-05
1.825	1.49570	3.40E-05
1.830	1.49671	3.38E-05
1.835	1.49562	3.37E-05
1.840	1.49483	3.36E-05
1.845	1.49515	3.33E-05
1.850	1.49358	3.32E-05
1.855	1.49389	3.30E-05
1.860	1.49436	3.29E-05
1.865	1.49460	3.28E-05
1.870	1.49562	3.26E-05
1.875	1.49373	3.25E-05
1.880	1.49224	3.24E-05
1.885	1.49750	3.21E-05
1.890	1.49515	3.20E-05
1.895	1.49350	3.19E-05
1.900	1.49201	3.19E-05
1.905	1.49256	3.17E-05
1.910	1.49515	3.15E-05
1.915	1.49161	3.15E-05
1.920	1.49035	3.14E-05
1.925	1.49020	3.12E-05
1.930	1.49381	3.10E-05
1.935	1.49397	3.09E-05
1.940	1.49059	3.09E-05
1.945	1.49153	3.07E-05
1.950	1.49295	3.06E-05
1.955	1.49311	3.03E-05
1.960	1.49083	3.04E-05
1.965	1.49020	3.03E-05
1.970	1.49098	3.03E-05
1.975	1.49366	2.99E-05
1.980	1.49326	2.99E-05
1.985	1.49035	2.99E-05
1.990	1.49287	2.97E-05
1.995	1.48767	2.95E-05
2.000	1.48980	2.96E-05
