Material: organic / (C5H8O2)n - poly(methyl methacrylate) / Tsuda-BB
Optical constants. S. Tsuda, S. Yamaguchi, Y. Kanamori, H. Yugami. Spectral and angular shaping of infrared radiation in a polymer resonator with molecular vibrational modes. Opt. Express 26, 6899-6915 (2018) [Calculation script (Python)]
Comments: MicroChem PMMA resist with a molecular weight of 950,000; Baked at 100 Â°C for 10 min on a hot plate; Brendel-Bormann model parameters provided in Table 2 of manuscript.
wavelength (um)	n	k
2.500	1.46589	4.192e-05
2.540	1.46568	4.628e-05
2.580	1.46546	5.132e-05
2.620	1.46522	5.722e-05
2.660	1.46497	6.426e-05
2.700	1.46470	7.288e-05
2.740	1.46440	8.395e-05
2.780	1.46407	9.952e-05
2.820	1.46368	1.265e-04
2.860	1.46315	2.107e-04
2.900	1.46265	1.324e-03
2.940	1.46328	3.645e-04
2.980	1.46250	2.324e-04
3.020	1.46184	2.508e-04
3.060	1.46112	3.024e-04
3.100	1.46026	3.858e-04
3.140	1.45918	5.187e-04
3.180	1.45774	7.453e-04
3.220	1.45561	1.185e-03
3.260	1.45194	2.288e-03
3.300	1.44382	7.880e-03
3.340	1.45592	2.866e-02
3.380	1.44913	3.300e-02
3.420	1.47888	1.930e-02
3.460	1.47896	8.559e-03
3.500	1.47334	4.053e-03
3.540	1.47388	2.436e-03
3.580	1.47052	1.268e-03
3.620	1.46886	8.934e-04
3.660	1.46765	6.767e-04
3.700	1.46668	5.407e-04
3.740	1.46587	4.503e-04
3.780	1.46516	3.876e-04
3.820	1.46452	3.427e-04
3.860	1.46393	3.099e-04
3.900	1.46337	2.856e-04
3.940	1.46284	2.676e-04
3.980	1.46233	2.542e-04
4.020	1.46182	2.444e-04
4.060	1.46133	2.375e-04
4.100	1.46084	2.329e-04
4.140	1.46034	2.303e-04
4.180	1.45984	2.293e-04
4.220	1.45934	2.298e-04
4.260	1.45883	2.315e-04
4.300	1.45831	2.344e-04
4.340	1.45778	2.385e-04
4.380	1.45723	2.436e-04
4.420	1.45667	2.497e-04
4.460	1.45609	2.568e-04
4.500	1.45549	2.650e-04
4.540	1.45486	2.742e-04
4.580	1.45422	2.846e-04
4.620	1.45354	2.962e-04
4.660	1.45283	3.090e-04
4.700	1.45209	3.232e-04
4.740	1.45131	3.390e-04
4.780	1.45049	3.564e-04
4.820	1.44962	3.758e-04
4.860	1.44870	3.974e-04
4.900	1.44771	4.215e-04
4.940	1.44666	4.484e-04
4.980	1.44554	4.788e-04
5.020	1.44432	5.133e-04
5.060	1.44300	5.527e-04
5.100	1.44156	5.980e-04
5.140	1.43998	6.507e-04
5.180	1.43823	7.128e-04
5.220	1.43628	7.869e-04
5.260	1.43408	8.766e-04
5.300	1.43158	9.874e-04
5.340	1.42868	1.127e-03
5.380	1.42528	1.308e-03
5.420	1.42121	1.550e-03
5.460	1.41621	1.886e-03
5.500	1.40987	2.377e-03
5.540	1.40152	3.141e-03
5.580	1.38987	4.439e-03
5.620	1.37226	6.955e-03
5.660	1.34192	1.304e-02
5.700	1.27591	3.790e-02
5.740	1.17755	2.347e-01
5.780	1.52771	4.347e-01
5.820	1.69589	1.490e-01
5.860	1.60066	2.987e-02
5.900	1.54789	1.204e-02
5.940	1.52165	7.115e-03
5.980	1.50563	4.991e-03
6.020	1.49458	3.894e-03
6.060	1.48630	3.273e-03
6.100	1.47973	2.911e-03
6.140	1.47424	2.705e-03
6.180	1.46949	2.603e-03
6.220	1.46521	2.578e-03
6.260	1.46125	2.616e-03
6.300	1.45747	2.711e-03
6.340	1.45377	2.864e-03
6.380	1.45003	3.082e-03
6.420	1.44616	3.377e-03
6.460	1.44202	3.773e-03
6.500	1.43745	4.310e-03
6.540	1.43215	5.058e-03
6.580	1.42561	6.172e-03
6.620	1.41655	8.227e-03
6.660	1.40235	1.513e-02
6.700	1.39000	3.907e-02
6.740	1.40704	6.732e-02
6.780	1.42957	6.134e-02
6.820	1.42097	5.452e-02
6.860	1.41614	7.774e-02
6.900	1.44459	9.286e-02
6.940	1.45903	8.979e-02
6.980	1.50015	8.369e-02
7.020	1.50071	3.328e-02
7.060	1.47666	1.961e-02
7.100	1.46112	1.766e-02
7.140	1.44692	2.259e-02
7.180	1.44382	3.800e-02
7.220	1.45792	4.128e-02
7.260	1.46085	2.868e-02
7.300	1.45349	2.296e-02
7.340	1.44830	2.213e-02
7.380	1.44452	2.101e-02
7.420	1.44026	1.940e-02
7.460	1.43503	1.796e-02
7.500	1.42887	1.708e-02
7.540	1.42185	1.692e-02
7.580	1.41391	1.762e-02
7.620	1.40487	1.939e-02
7.660	1.39440	2.267e-02
7.700	1.38214	2.843e-02
7.740	1.36789	3.863e-02
7.780	1.35306	5.723e-02
7.820	1.34587	8.943e-02
7.860	1.36648	1.251e-01
7.900	1.40135	1.245e-01
7.940	1.40210	1.087e-01
7.980	1.38955	1.200e-01
8.020	1.39996	1.479e-01
8.060	1.43552	1.583e-01
8.100	1.46735	1.367e-01
8.140	1.47139	9.960e-02
8.180	1.44767	7.168e-02
8.220	1.40989	6.575e-02
8.260	1.37124	8.463e-02
8.300	1.34552	1.284e-01
8.340	1.35140	1.863e-01
8.380	1.39342	2.281e-01
8.420	1.44468	2.312e-01
8.460	1.47235	2.065e-01
8.500	1.46757	1.838e-01
8.540	1.44459	1.854e-01
8.580	1.42594	2.184e-01
8.620	1.43551	2.759e-01
8.660	1.49271	3.313e-01
8.700	1.58568	3.419e-01
8.740	1.66501	2.957e-01
8.780	1.70128	2.276e-01
8.820	1.70483	1.682e-01
8.860	1.69348	1.249e-01
8.900	1.67751	9.478e-02
8.940	1.66124	7.382e-02
8.980	1.64613	5.894e-02
9.020	1.63251	4.811e-02
9.060	1.62026	4.005e-02
9.100	1.60909	3.393e-02
9.140	1.59858	2.936e-02
9.180	1.58827	2.644e-02
9.220	1.57817	2.591e-02
9.260	1.56951	2.870e-02
9.300	1.56481	3.422e-02
9.340	1.56579	3.922e-02
9.380	1.57065	3.960e-02
9.420	1.57476	3.419e-02
9.460	1.57460	2.578e-02
9.500	1.57016	1.813e-02
9.540	1.56364	1.312e-02
9.580	1.55702	1.048e-02
9.620	1.55110	9.187e-03
9.660	1.54580	8.468e-03
9.700	1.54084	7.962e-03
9.740	1.53590	7.555e-03
9.780	1.53068	7.241e-03
9.820	1.52476	7.124e-03
9.860	1.51752	7.649e-03
9.900	1.50837	1.011e-02
9.940	1.49790	1.702e-02
9.980	1.48967	3.065e-02
10.020	1.48963	4.928e-02
10.060	1.50076	6.543e-02
10.100	1.51804	7.140e-02
10.140	1.53230	6.689e-02
10.180	1.53855	5.854e-02
10.220	1.53885	5.285e-02
10.260	1.53817	5.148e-02
10.300	1.53966	5.228e-02
10.340	1.54355	5.250e-02
10.380	1.54846	5.068e-02
10.420	1.55290	4.668e-02
10.460	1.55580	4.113e-02
10.500	1.55674	3.497e-02
10.540	1.55574	2.908e-02
10.580	1.55321	2.414e-02
10.620	1.54973	2.056e-02
10.660	1.54592	1.843e-02
10.700	1.54231	1.764e-02
10.740	1.53933	1.788e-02
10.780	1.53722	1.876e-02
10.820	1.53604	1.986e-02
10.860	1.53570	2.079e-02
10.900	1.53597	2.128e-02
10.940	1.53657	2.117e-02
10.980	1.53719	2.044e-02
11.020	1.53758	1.918e-02
11.060	1.53758	1.759e-02
11.100	1.53711	1.584e-02
11.140	1.53619	1.411e-02
11.180	1.53487	1.256e-02
11.220	1.53325	1.125e-02
11.260	1.53143	1.024e-02
11.300	1.52947	9.528e-03
11.340	1.52744	9.106e-03
11.380	1.52536	8.963e-03
11.420	1.52325	9.093e-03
11.460	1.52111	9.507e-03
11.500	1.51895	1.024e-02
11.540	1.51678	1.134e-02
11.580	1.51462	1.291e-02
11.620	1.51257	1.509e-02
11.660	1.51081	1.803e-02
11.700	1.50968	2.188e-02
11.740	1.50982	2.663e-02
11.780	1.51200	3.176e-02
11.820	1.51673	3.597e-02
11.860	1.52331	3.755e-02
11.900	1.52969	3.574e-02
11.940	1.53398	3.154e-02
11.980	1.53566	2.668e-02
12.020	1.53510	2.236e-02
12.060	1.53253	1.994e-02
12.100	1.53157	2.146e-02
12.140	1.53499	1.952e-02
12.180	1.53332	1.470e-02
12.220	1.52990	1.365e-02
12.260	1.52767	1.430e-02
12.300	1.52660	1.574e-02
12.340	1.52710	1.733e-02
12.380	1.52906	1.772e-02
12.420	1.53096	1.617e-02
12.460	1.53149	1.360e-02
12.500	1.53076	1.122e-02
12.540	1.52937	9.416e-03
12.580	1.52775	8.156e-03
12.620	1.52605	7.302e-03
12.660	1.52436	6.742e-03
12.700	1.52267	6.403e-03
12.740	1.52097	6.245e-03
12.780	1.51924	6.247e-03
12.820	1.51744	6.412e-03
12.860	1.51555	6.756e-03
12.900	1.51350	7.322e-03
12.940	1.51127	8.181e-03
12.980	1.50879	9.456e-03
13.020	1.50602	1.135e-02
13.060	1.50296	1.420e-02
13.100	1.49979	1.856e-02
13.140	1.49716	2.520e-02
13.180	1.49675	3.472e-02
13.220	1.50134	4.615e-02
13.260	1.51284	5.552e-02
13.300	1.52879	5.763e-02
13.340	1.54295	5.123e-02
13.380	1.55087	4.033e-02
13.420	1.55282	2.975e-02
13.460	1.55140	2.170e-02
13.500	1.54875	1.617e-02
13.540	1.54595	1.244e-02
13.580	1.54337	9.900e-03
13.620	1.54110	8.110e-03
13.660	1.53912	6.810e-03
13.700	1.53740	5.838e-03
13.740	1.53590	5.092e-03
13.780	1.53457	4.507e-03
13.820	1.53339	4.038e-03
13.860	1.53233	3.657e-03
13.900	1.53137	3.342e-03
13.940	1.53050	3.078e-03
13.980	1.52971	2.855e-03
14.020	1.52898	2.663e-03
14.060	1.52830	2.497e-03
14.100	1.52767	2.353e-03
14.140	1.52708	2.225e-03
14.180	1.52653	2.113e-03
14.220	1.52602	2.012e-03
14.260	1.52553	1.922e-03
14.300	1.52507	1.841e-03
14.340	1.52464	1.768e-03
14.380	1.52422	1.701e-03
14.420	1.52383	1.640e-03
14.460	1.52345	1.584e-03
14.500	1.52309	1.532e-03
14.540	1.52275	1.484e-03
14.580	1.52242	1.440e-03
14.620	1.52210	1.399e-03
14.660	1.52180	1.361e-03
14.700	1.52150	1.325e-03
14.740	1.52122	1.291e-03
14.780	1.52095	1.260e-03
14.820	1.52068	1.230e-03
14.860	1.52043	1.202e-03
14.900	1.52018	1.175e-03
14.940	1.51994	1.150e-03
14.980	1.51971	1.126e-03
15.020	1.51948	1.104e-03
15.060	1.51926	1.082e-03
15.100	1.51905	1.062e-03
15.140	1.51884	1.042e-03
15.180	1.51863	1.024e-03
15.220	1.51844	1.006e-03
15.260	1.51824	9.887e-04
15.300	1.51806	9.723e-04
15.340	1.51787	9.566e-04
15.380	1.51770	9.415e-04
15.420	1.51752	9.270e-04
15.460	1.51735	9.130e-04
15.500	1.51718	8.995e-04
15.540	1.51702	8.865e-04
15.580	1.51686	8.740e-04
15.620	1.51670	8.618e-04
15.660	1.51655	8.501e-04
15.700	1.51640	8.388e-04
15.740	1.51626	8.279e-04
15.780	1.51611	8.173e-04
15.820	1.51597	8.070e-04
15.860	1.51583	7.970e-04
15.900	1.51570	7.873e-04
15.940	1.51556	7.779e-04
15.980	1.51543	7.688e-04
16.020	1.51530	7.599e-04
16.060	1.51518	7.513e-04
16.100	1.51505	7.429e-04
16.140	1.51493	7.348e-04
16.180	1.51481	7.268e-04
16.220	1.51470	7.191e-04
16.260	1.51458	7.115e-04
16.300	1.51447	7.042e-04
16.340	1.51435	6.970e-04
16.380	1.51424	6.900e-04
16.420	1.51414	6.831e-04
16.460	1.51403	6.765e-04
16.500	1.51393	6.699e-04
16.540	1.51382	6.636e-04
16.580	1.51372	6.573e-04
16.620	1.51362	6.512e-04
16.660	1.51352	6.453e-04
16.700	1.51343	6.394e-04
16.740	1.51333	6.337e-04
16.780	1.51324	6.281e-04
16.820	1.51314	6.227e-04
16.860	1.51305	6.173e-04
16.900	1.51296	6.120e-04
16.940	1.51287	6.069e-04
16.980	1.51279	6.019e-04
17.020	1.51270	5.969e-04
17.060	1.51261	5.920e-04
17.100	1.51253	5.873e-04
17.140	1.51245	5.826e-04
17.180	1.51236	5.780e-04
17.220	1.51228	5.735e-04
17.260	1.51220	5.691e-04
17.300	1.51213	5.648e-04
17.340	1.51205	5.605e-04
17.380	1.51197	5.563e-04
17.420	1.51190	5.522e-04
17.460	1.51182	5.481e-04
17.500	1.51175	5.442e-04
17.540	1.51167	5.402e-04
17.580	1.51160	5.364e-04
17.620	1.51153	5.326e-04
17.660	1.51146	5.289e-04
17.700	1.51139	5.252e-04
17.740	1.51132	5.216e-04
17.780	1.51126	5.181e-04
17.820	1.51119	5.146e-04
17.860	1.51112	5.111e-04
17.900	1.51106	5.077e-04
17.940	1.51099	5.044e-04
17.980	1.51093	5.011e-04
18.020	1.51087	4.979e-04
18.060	1.51080	4.947e-04
18.100	1.51074	4.916e-04
18.140	1.51068	4.885e-04
18.180	1.51062	4.854e-04
