Material: lightpath / infrared / BD6
Optical constants. BLACK DIAMOND BD6 Glass Datasheet (revision 2023-07-28) See also datasheet revision 2018-03-02 for more information.
Comments: 20 Â°C.
Conditions: {"temperature": 293}
Properties: {"density": [{"value": 4630}], "thermal_expansion": [{"value": 2.25e-05}], "thermal_dispersion": [{"type": "dn/dT", "wavelength_range": "8 12", "value": 3.05e-05}], "transformation_temperature": [{"value": 458}]}
wavelength (um)	n
2	2.820
4	2.794
6	2.788
8	2.783
10	2.778
12	2.772
14	2.764
