Material: organic / (C68H76F2O2S8)n - PBDB-T-2F / Kamptner-e
Optical constants. A. Kamptner, M. C. Scharber, M. Schiek. Accurate determination of the uniaxial complex refractive index and the optical band gap of polymer thin films to correlate their absorption strength and onset of absorption. Chem. Phys. Chem. e202400233 (2024) (Numerical data kindly provided by Manuela Schiek)
Comments: Extraordinary ray (e)
wavelength (um)	n	k
0.19146	1.35200	1.67440E-01
0.19465	1.48543	1.24180E-01
0.19784	1.50422	5.81200E-02
0.20104	1.48334	4.81800E-02
0.20423	1.48566	6.04500E-02
0.20742	1.49722	5.60200E-02
0.21062	1.49408	4.54600E-02
0.21381	1.48257	4.63800E-02
0.21701	1.47855	5.55500E-02
0.22020	1.48255	6.05700E-02
0.22340	1.48417	5.77800E-02
0.22659	1.47861	5.42000E-02
0.22979	1.46838	5.59700E-02
0.23298	1.45872	6.39000E-02
0.23618	1.45227	7.63800E-02
0.23938	1.45094	9.15600E-02
0.24257	1.45552	1.06380E-01
0.24577	1.46484	0.11797
0.24897	1.47593	0.1247
0.25216	1.48617	0.12784
0.25536	1.49490	0.12908
0.25856	1.50245	1.29710E-01
0.26176	1.50964	1.30020E-01
0.26496	1.51673	1.29810E-01
0.26815	1.52376	1.28950E-01
0.27135	1.53067	1.27340E-01
0.27455	1.53737	1.24940E-01
0.27775	1.54374	1.21740E-01
0.28095	1.54963	1.17730E-01
0.28415	1.55485	1.12980E-01
0.28735	1.55925	1.07670E-01
0.29055	1.56279	1.01970E-01
0.29375	1.56546	9.60400E-02
0.29695	1.56723	9.00100E-02
0.30015	1.56811	8.40500E-02
0.30335	1.56816	7.83100E-02
0.30655	1.56745	7.29300E-02
0.30975	1.56610	6.80200E-02
0.31295	1.56424	6.36600E-02
0.31615	1.56200	5.98900E-02
0.31935	1.55947	5.67300E-02
0.32255	1.55676	5.41900E-02
0.32576	1.55400	5.23000E-02
0.32896	1.55134	5.10300E-02
0.33216	1.54891	5.02800E-02
0.33536	1.54677	4.99500E-02
0.33856	1.54497	4.99400E-02
0.34176	1.54351	5.01600E-02
0.34497	1.54242	5.05300E-02
0.34817	1.54171	5.09800E-02
0.35137	1.54135	5.13800E-02
0.35457	1.54131	5.16700E-02
0.35777	1.54153	5.17500E-02
0.36098	1.54193	5.15600E-02
0.36418	1.54239	5.10300E-02
0.36738	1.54275	5.01500E-02
0.37058	1.54282	4.90200E-02
0.37379	1.54255	4.78100E-02
0.37699	1.54194	4.66600E-02
0.38019	1.54101	4.57000E-02
0.38339	1.53984	4.50400E-02
0.38660	1.53854	4.47800E-02
0.38980	1.53727	4.50100E-02
0.39300	1.53628	4.56800E-02
0.39621	1.53567	4.66000E-02
0.39941	1.53550	4.76500E-02
0.40261	1.53575	4.86800E-02
0.40581	1.53641	4.95700E-02
0.40902	1.53740	5.02100E-02
0.41222	1.53864	5.05000E-02
0.41542	1.54001	5.03500E-02
0.41863	1.54130	4.97700E-02
0.42183	1.54239	4.88400E-02
0.42503	1.54320	4.76800E-02
0.42823	1.54370	4.63900E-02
0.43144	1.54389	4.50500E-02
0.43464	1.54379	4.37500E-02
0.43784	1.54342	4.25700E-02
0.44105	1.54282	4.15600E-02
0.44425	1.54205	4.08000E-02
0.44745	1.54119	4.03300E-02
0.45065	1.54037	4.01300E-02
0.45386	1.53964	4.01400E-02
0.45706	1.53903	4.03300E-02
0.46026	1.53857	4.06500E-02
0.46346	1.53827	4.10600E-02
0.46667	1.53812	4.15200E-02
0.46987	1.53812	4.19900E-02
0.47307	1.53828	4.24400E-02
0.47627	1.53856	4.28500E-02
0.47947	1.53895	4.31900E-02
0.48267	1.53941	4.34400E-02
0.48588	1.53991	4.35900E-02
0.48908	1.54042	4.36700E-02
0.49228	1.54092	4.36900E-02
0.49548	1.54142	4.36700E-02
0.49868	1.54189	4.36200E-02
0.50188	1.54235	4.35500E-02
0.50508	1.54280	4.34800E-02
0.50828	1.54323	4.34000E-02
0.51149	1.54366	4.33500E-02
0.51469	1.54409	4.33100E-02
0.51789	1.54453	4.33000E-02
0.52109	1.54499	4.33400E-02
0.52429	1.54551	4.34100E-02
0.52749	1.54610	4.35100E-02
0.53069	1.54678	4.36200E-02
0.53389	1.54755	4.37200E-02
0.53709	1.54842	4.37800E-02
0.54028	1.54938	4.37900E-02
0.54348	1.55043	4.37400E-02
0.54668	1.55155	4.36000E-02
0.54988	1.55275	4.33600E-02
0.55308	1.55400	4.30100E-02
0.55628	1.55530	4.25400E-02
0.55948	1.55663	4.19400E-02
0.56267	1.55797	4.12000E-02
0.56587	1.55932	4.03100E-02
0.56907	1.56064	3.92600E-02
0.57227	1.56191	3.80500E-02
0.57546	1.56309	3.66800E-02
0.57866	1.56416	3.51700E-02
0.58186	1.56509	3.35600E-02
0.58505	1.56588	3.18500E-02
0.58825	1.56653	3.00800E-02
0.59144	1.56702	2.82600E-02
0.59464	1.56737	2.64100E-02
0.59783	1.56756	2.45500E-02
0.60103	1.56761	2.26900E-02
0.60422	1.56752	2.08500E-02
0.60742	1.56729	1.90500E-02
0.61061	1.56693	1.72900E-02
0.61381	1.56645	1.55900E-02
0.61700	1.56585	1.39700E-02
0.62019	1.56515	1.24200E-02
0.62339	1.56435	1.09600E-02
0.62658	1.56347	9.60000E-03
0.62977	1.56252	8.36000E-03
0.63296	1.56152	7.23000E-03
0.63616	1.56049	6.21000E-03
0.63935	1.55945	5.31000E-03
0.64254	1.55841	4.50000E-03
0.64573	1.55737	3.79000E-03
0.64892	1.55635	3.16000E-03
0.65211	1.55535	2.61000E-03
0.65530	1.55437	2.14000E-03
0.65849	1.55341	1.72000E-03
0.66168	1.55249	1.37000E-03
0.66487	1.55159	1.07000E-03
0.66805	1.55073	8.24000E-04
0.67124	1.54991	6.18000E-04
0.67443	1.54912	4.51000E-04
0.67762	1.54837	3.19000E-04
0.68080	1.54765	2.16000E-04
0.68399	1.54696	1.39000E-04
0.68718	1.54632	8.30000E-05
0.69036	1.54571	4.50000E-05
0.69355	1.54513	2.10000E-05
0.69673	1.54458	7.00000E-06
0.69992	1.54407	2.00000E-06
0.70310	1.54358	0
0.70628	1.54312	0
0.70947	1.54268	0
0.71265	1.54226	0
0.71583	1.54186	0
0.71902	1.54147	0
0.72220	1.54110	0
0.72538	1.54074	0
0.72856	1.54039	0
0.73174	1.54005	0
0.73492	1.53973	0
0.73810	1.53942	0
0.74128	1.53911	0
0.74446	1.53882	0
0.74763	1.53853	0
0.75081	1.53825	0
0.75399	1.53798	0
0.75716	1.53772	0
0.76034	1.53747	0
0.76352	1.53722	0
0.76669	1.53698	0
0.76987	1.53674	0
0.77304	1.53651	0
0.77621	1.53628	0
0.77939	1.53607	0
0.78256	1.53585	0
0.78573	1.53564	0
0.78890	1.53544	0
0.79207	1.53524	0
0.79524	1.53504	0
0.79841	1.53485	0
0.80158	1.53467	0
0.80475	1.53448	0
0.80792	1.53430	0
0.81109	1.53413	0
0.81425	1.53396	0
0.81742	1.53379	0
0.82058	1.53363	0
0.82375	1.53346	0
0.82691	1.53330	0
0.83008	1.53315	0
0.83324	1.53300	0
0.83641	1.53285	0
0.83957	1.53270	0
0.84273	1.53256	0
0.84589	1.53242	0
0.84905	1.53228	0
0.85221	1.53214	0
0.85537	1.53201	0
0.85853	1.53188	0
0.86169	1.53175	0
0.86484	1.53162	0
0.86800	1.53149	0
0.87116	1.53137	0
0.87431	1.53125	0
0.87747	1.53113	0
0.88062	1.53102	0
0.88377	1.53090	0
0.88693	1.53079	0
0.89008	1.53068	0
0.89323	1.53057	0
0.89638	1.53046	0
0.89953	1.53035	0
0.90268	1.53025	0
0.90583	1.53015	0
0.90898	1.53004	0
0.91212	1.52995	0
0.91527	1.52985	0
0.91842	1.52975	0
0.92156	1.52965	0
0.92470	1.52956	0
0.92785	1.52947	0
0.93099	1.52938	0
0.93413	1.52929	0
0.93728	1.52920	0
0.94042	1.52911	0
0.94356	1.52903	0
0.94669	1.52894	0
0.94983	1.52886	0
0.95297	1.52877	0
0.95611	1.52869	0
0.95924	1.52861	0
0.96238	1.52853	0
0.96551	1.52845	0
0.96865	1.52838	0
0.97178	1.52830	0
0.97491	1.52823	0
0.97804	1.52815	0
0.98117	1.52808	0
0.98430	1.52801	0
0.98743	1.52794	0
0.99056	1.52787	0
0.99369	1.52780	0
0.99681	1.52773	0
0.99994	1.52766	0
1.01681	1.52731	0
1.02367	1.52717	0
1.03052	1.52704	0
1.03738	1.52691	0
1.04423	1.52678	0
1.05109	1.52666	0
1.05795	1.52654	0
1.06480	1.52642	0
1.07166	1.52631	0
1.07851	1.52620	0
1.08537	1.52609	0
1.09223	1.52598	0
1.09908	1.52588	0
1.10594	1.52578	0
1.11280	1.52568	0
1.11965	1.52558	0
1.12651	1.52548	0
1.13337	1.52539	0
1.14022	1.52530	0
1.14708	1.52521	0
1.15394	1.52512	0
1.16080	1.52504	0
1.16766	1.52496	0
1.17452	1.52487	0
1.18138	1.52479	0
1.18824	1.52472	0
1.19510	1.52464	0
1.20196	1.52456	0
1.20883	1.52449	0
1.21569	1.52442	0
1.22255	1.52435	0
1.22942	1.52428	0
1.23628	1.52421	0
1.24315	1.52414	0
1.25001	1.52408	0
1.25688	1.52401	0
1.26375	1.52395	0
1.27062	1.52389	0
1.27749	1.52383	0
1.28436	1.52377	0
1.29123	1.52371	0
1.29810	1.52365	0
1.30497	1.52359	0
1.31185	1.52354	0
1.31872	1.52348	0
1.32560	1.52343	0
1.33248	1.52338	0
1.33935	1.52332	0
1.34623	1.52327	0
1.35311	1.52322	0
1.36000	1.52317	0
1.36688	1.52313	0
1.37376	1.52308	0
1.38065	1.52303	0
1.38753	1.52299	0
1.39442	1.52294	0
1.40131	1.52290	0
1.40820	1.52285	0
1.41509	1.52281	0
1.42199	1.52277	0
1.42888	1.52273	0
1.43578	1.52268	0
1.44267	1.52264	0
1.44957	1.52260	0
1.45647	1.52256	0
1.46337	1.52253	0
1.47028	1.52249	0
1.47718	1.52245	0
1.48409	1.52241	0
1.49100	1.52238	0
1.49791	1.52234	0
1.50482	1.52231	0
1.51173	1.52227	0
1.51865	1.52224	0
1.52556	1.52220	0
1.53248	1.52217	0
1.53940	1.52214	0
1.54633	1.52211	0
1.55325	1.52207	0
1.56018	1.52204	0
1.56711	1.52201	0
1.57404	1.52198	0
1.58097	1.52195	0
1.58790	1.52192	0
1.59484	1.52189	0
1.60178	1.52186	0
1.60872	1.52184	0
1.61566	1.52181	0
1.62260	1.52178	0
1.62955	1.52175	0
1.63650	1.52173	0
1.64345	1.52170	0
1.65040	1.52167	0
1.65736	1.52165	0
1.66432	1.52162	0
1.67128	1.52160	0
1.67824	1.52157	0
1.68520	1.52155	0
