Material: organic / (C68H76F2O2S8)n - PBDB-T-2F / Kamptner-o
Optical constants. A. Kamptner, M. C. Scharber, M. Schiek. Accurate determination of the uniaxial complex refractive index and the optical band gap of polymer thin films to correlate their absorption strength and onset of absorption. Chem. Phys. Chem. e202400233 (2024) (Numerical data kindly provided by Manuela Schiek)
Comments: Ordinary ray (o)
wavelength (um)	n	k
0.19146	1.48233	2.48290E-01
0.19465	1.57741	2.04260E-01
0.19784	1.59035	1.61610E-01
0.20104	1.57944	1.46940E-01
0.20423	1.57873	1.50350E-01
0.20742	1.58445	1.41840E-01
0.21062	1.57880	1.29860E-01
0.21381	1.56690	1.25550E-01
0.21701	1.55811	1.27760E-01
0.22020	1.55428	1.29120E-01
0.22340	1.54914	1.27030E-01
0.22659	1.54033	1.25650E-01
0.22979	1.52953	1.28040E-01
0.23298	1.51951	1.34700E-01
0.23618	1.51225	1.44700E-01
0.23938	1.50889	1.56490E-01
0.24257	1.50979	1.68240E-01
0.24577	1.51437	1.78010E-01
0.24897	1.52066	1.84660E-01
0.25216	1.52710	1.88950E-01
0.25536	1.53335	1.91640E-01
0.25856	1.53933	1.93160E-01
0.26176	1.54505	1.93810E-01
0.26496	1.55068	1.93710E-01
0.26815	1.55626	1.92760E-01
0.27135	1.56166	1.90890E-01
0.27455	1.56676	1.88090E-01
0.27775	1.57142	1.84320E-01
0.28095	1.57538	1.79540E-01
0.28415	1.57830	1.73910E-01
0.28735	1.57998	1.67730E-01
0.29055	1.58031	1.61300E-01
0.29375	1.57927	1.54970E-01
0.29695	1.57694	1.49060E-01
0.30015	1.57348	1.43890E-01
0.30335	1.56923	1.39690E-01
0.30655	1.56451	1.36400E-01
0.30975	1.55945	1.33980E-01
0.31295	1.55416	1.32380E-01
0.31615	1.54873	1.31620E-01
0.31935	1.54326	1.31700E-01
0.32255	1.53784	1.32590E-01
0.32576	1.53258	1.34280E-01
0.32896	1.52755	1.36800E-01
0.33216	1.52290	1.40130E-01
0.33536	1.51881	1.44270E-01
0.33856	1.51549	1.49090E-01
0.34176	1.51303	1.54390E-01
0.34497	1.51152	1.60030E-01
0.34817	1.51100	1.65830E-01
0.35137	1.51152	1.71670E-01
0.35457	1.51322	1.77360E-01
0.35777	1.51621	1.82510E-01
0.36098	1.52032	1.86630E-01
0.36418	1.52519	1.89360E-01
0.36738	1.53030	1.90520E-01
0.37058	1.53522	1.90140E-01
0.37379	1.53953	1.88240E-01
0.37699	1.54263	1.85010E-01
0.38019	1.54409	1.81050E-01
0.38339	1.54386	1.77010E-01
0.38660	1.54212	1.73430E-01
0.38980	1.53922	1.70710E-01
0.39300	1.53550	1.69020E-01
0.39621	1.53130	1.68520E-01
0.39941	1.52703	1.69330E-01
0.40261	1.52327	1.71300E-01
0.40581	1.52033	1.73960E-01
0.40902	1.51827	1.76870E-01
0.41222	1.51697	1.79630E-01
0.41542	1.51613	1.82000E-01
0.41863	1.51549	1.83940E-01
0.42183	1.51487	1.85460E-01
0.42503	1.51413	1.86560E-01
0.42823	1.51307	1.87270E-01
0.43144	1.51147	1.87750E-01
0.43464	1.50928	1.88230E-01
0.43784	1.50649	1.88910E-01
0.44105	1.50320	1.89970E-01
0.44425	1.49956	1.91560E-01
0.44745	1.49578	1.93650E-01
0.45065	1.49193	1.96170E-01
0.45386	1.48804	1.99060E-01
0.45706	1.48411	2.02250E-01
0.46026	1.48010	2.05710E-01
0.46346	1.47595	2.09470E-01
0.46667	1.47161	2.13570E-01
0.46987	1.46711	2.18080E-01
0.47307	1.46243	2.23050E-01
0.47627	1.45760	2.28530E-01
0.47947	1.45262	2.34570E-01
0.48267	1.44749	2.41260E-01
0.48588	1.44227	2.48700E-01
0.48908	1.43705	2.56970E-01
0.49228	1.43193	2.66140E-01
0.49548	1.42702	2.76260E-01
0.49868	1.42248	2.87360E-01
0.50188	1.41845	2.99420E-01
0.50508	1.41504	3.12400E-01
0.50828	1.41236	3.26240E-01
0.51149	1.41051	3.40890E-01
0.51469	1.40957	3.56290E-01
0.51789	1.40962	3.72370E-01
0.52109	1.41076	3.89050E-01
0.52429	1.41303	4.06250E-01
0.52749	1.41650	4.23870E-01
0.53069	1.42119	4.41830E-01
0.53389	1.42712	4.60030E-01
0.53709	1.43430	4.78410E-01
0.54028	1.44267	4.96900E-01
0.54348	1.45213	5.15600E-01
0.54668	1.46278	5.34790E-01
0.54988	1.47503	5.54680E-01
0.55308	1.48951	5.75330E-01
0.55628	1.50720	5.96320E-01
0.55948	1.52864	6.16300E-01
0.56267	1.55341	6.34030E-01
0.56587	1.58075	6.48610E-01
0.56907	1.60960	6.59510E-01
0.57227	1.63881	6.66840E-01
0.57546	1.66771	6.71000E-01
0.57866	1.69581	6.72320E-01
0.58186	1.72263	6.71120E-01
0.58505	1.74754	6.67860E-01
0.58825	1.77014	6.63530E-01
0.59144	1.79061	6.59060E-01
0.59464	1.80930	6.55170E-01
0.59783	1.82673	6.52490E-01
0.60103	1.84350	6.51550E-01
0.60422	1.86043	6.52850E-01
0.60742	1.87862	6.56760E-01
0.61061	1.89948	6.63440E-01
0.61381	1.92500	6.72770E-01
0.61700	1.95846	6.83380E-01
0.62019	2.00166	6.90360E-01
0.62339	2.05298	6.89180E-01
0.62658	2.10946	6.76650E-01
0.62977	2.16730	6.50550E-01
0.63296	2.22128	6.09560E-01
0.63616	2.26488	5.56460E-01
0.63935	2.29573	4.96610E-01
0.64254	2.31367	4.34190E-01
0.64573	2.31935	3.72690E-01
0.64892	2.31416	3.15260E-01
0.65211	2.30082	2.64660E-01
0.65530	2.28298	2.21180E-01
0.65849	2.26254	1.83870E-01
0.66168	2.24060	1.52010E-01
0.66487	2.21795	1.24970E-01
0.66805	2.19520	1.02210E-01
0.67124	2.17279	8.32300E-02
0.67443	2.15110	6.75400E-02
0.67762	2.13039	5.46900E-02
0.68080	2.11086	4.42400E-02
0.68399	2.09263	3.57500E-02
0.68718	2.07573	2.87900E-02
0.69036	2.06009	2.29500E-02
0.69355	2.04546	1.79800E-02
0.69673	2.03169	1.37900E-02
0.69992	2.01874	1.03300E-02
0.70310	2.00655	7.51000E-03
0.70628	1.99509	5.26000E-03
0.70947	1.98433	3.52000E-03
0.71265	1.97426	2.22000E-03
0.71583	1.96486	1.29000E-03
0.71902	1.95609	6.69000E-04
0.72220	1.94793	2.90000E-04
0.72538	1.94036	9.10000E-05
0.72856	1.93333	1.40000E-05
0.73174	1.92680	0
0.73492	1.92071	0
0.73810	1.91498	0
0.74128	1.90958	0
0.74446	1.90447	0
0.74763	1.89962	0
0.75081	1.89501	0
0.75399	1.89062	0
0.75716	1.88643	0
0.76034	1.88242	0
0.76352	1.87858	0
0.76669	1.87491	0
0.76987	1.87138	0
0.77304	1.86799	0
0.77621	1.86473	0
0.77939	1.86159	0
0.78256	1.85857	0
0.78573	1.85565	0
0.78890	1.85284	0
0.79207	1.85012	0
0.79524	1.84750	0
0.79841	1.84496	0
0.80158	1.84250	0
0.80475	1.84012	0
0.80792	1.83781	0
0.81109	1.83557	0
0.81425	1.83340	0
0.81742	1.83130	0
0.82058	1.82925	0
0.82375	1.82726	0
0.82691	1.82533	0
0.83008	1.82345	0
0.83324	1.82163	0
0.83641	1.81985	0
0.83957	1.81811	0
0.84273	1.81643	0
0.84589	1.81478	0
0.84905	1.81318	0
0.85221	1.81162	0
0.85537	1.81009	0
0.85853	1.80860	0
0.86169	1.80715	0
0.86484	1.80573	0
0.86800	1.80435	0
0.87116	1.80299	0
0.87431	1.80167	0
0.87747	1.80038	0
0.88062	1.79911	0
0.88377	1.79787	0
0.88693	1.79666	0
0.89008	1.79548	0
0.89323	1.79432	0
0.89638	1.79319	0
0.89953	1.79207	0
0.90268	1.79099	0
0.90583	1.78992	0
0.90898	1.78887	0
0.91212	1.78785	0
0.91527	1.78685	0
0.91842	1.78586	0
0.92156	1.78489	0
0.92470	1.78395	0
0.92785	1.78302	0
0.93099	1.78211	0
0.93413	1.78121	0
0.93728	1.78033	0
0.94042	1.77947	0
0.94356	1.77862	0
0.94669	1.77779	0
0.94983	1.77698	0
0.95297	1.77617	0
0.95611	1.77538	0
0.95924	1.77461	0
0.96238	1.77385	0
0.96551	1.77310	0
0.96865	1.77236	0
0.97178	1.77164	0
0.97491	1.77093	0
0.97804	1.77023	0
0.98117	1.76954	0
0.98430	1.76886	0
0.98743	1.76819	0
0.99056	1.76754	0
0.99369	1.76689	0
0.99681	1.76626	0
0.99994	1.76563	0
1.01681	1.76241	0
1.02367	1.76118	0
1.03052	1.75998	0
1.03738	1.75882	0
1.04423	1.75770	0
1.05109	1.75661	0
1.05795	1.75555	0
1.06480	1.75452	0
1.07166	1.75353	0
1.07851	1.75256	0
1.08537	1.75162	0
1.09223	1.75070	0
1.09908	1.74981	0
1.10594	1.74894	0
1.11280	1.74810	0
1.11965	1.74728	0
1.12651	1.74648	0
1.13337	1.74570	0
1.14022	1.74494	0
1.14708	1.74420	0
1.15394	1.74348	0
1.16080	1.74278	0
1.16766	1.74209	0
1.17452	1.74142	0
1.18138	1.74077	0
1.18824	1.74013	0
1.19510	1.73951	0
1.20196	1.73890	0
1.20883	1.73830	0
1.21569	1.73772	0
1.22255	1.73715	0
1.22942	1.73660	0
1.23628	1.73605	0
1.24315	1.73552	0
1.25001	1.73500	0
1.25688	1.73449	0
1.26375	1.73400	0
1.27062	1.73351	0
1.27749	1.73303	0
1.28436	1.73256	0
1.29123	1.73211	0
1.29810	1.73166	0
1.30497	1.73122	0
1.31185	1.73079	0
1.31872	1.73036	0
1.32560	1.72995	0
1.33248	1.72954	0
1.33935	1.72914	0
1.34623	1.72876	0
1.35311	1.72837	0
1.36000	1.72800	0
1.36688	1.72763	0
1.37376	1.72727	0
1.38065	1.72691	0
1.38753	1.72656	0
1.39442	1.72622	0
1.40131	1.72588	0
1.40820	1.72555	0
1.41509	1.72523	0
1.42199	1.72491	0
1.42888	1.72460	0
1.43578	1.72429	0
1.44267	1.72399	0
1.44957	1.72369	0
1.45647	1.72340	0
1.46337	1.72311	0
1.47028	1.72283	0
1.47718	1.72255	0
1.48409	1.72228	0
1.49100	1.72201	0
1.49791	1.72175	0
1.50482	1.72149	0
1.51173	1.72123	0
1.51865	1.72098	0
1.52556	1.72073	0
1.53248	1.72049	0
1.53940	1.72025	0
1.54633	1.72001	0
1.55325	1.71978	0
1.56018	1.71955	0
1.56711	1.71933	0
1.57404	1.71911	0
1.58097	1.71889	0
1.58790	1.71867	0
1.59484	1.71846	0
1.60178	1.71825	0
1.60872	1.71805	0
1.61566	1.71784	0
1.62260	1.71764	0
1.62955	1.71745	0
1.63650	1.71725	0
1.64345	1.71706	0
1.65040	1.71687	0
1.65736	1.71669	0
1.66432	1.71650	0
1.67128	1.71633	0
1.67824	1.71615	0
1.68520	1.71597	0
