Material: main / C / Ermolaev-SWCNT-o
Optical constants. G. A. Ermolaev, Y. Xie, L. Qian, M. K. Tatmyshevskiy, A. S. Slavich, A. V. Arsenin, J. Zhang, V. S. Volkov, A. I. Chernov. Anisotropic optical properties of monolayer aligned single-walled carbon nanotubes. Phys. Status Solidi RRL, 2300199 (2023) (Numerical data kindly provided by Georgy Ermolaev)
Comments: Monolayer of aligned single-walled carbon nanotubes (SWCNTs). Ordinary ray (o).
Conditions: {"substrate": "SiO2", "film_thickness": "1L"}
wavelength (um)	n	k
0.250	1.25598	0.75529
0.254	1.29696	0.77268
0.258	1.33943	0.78474
0.262	1.38239	0.79130
0.266	1.42481	0.79241
0.270	1.46573	0.78838
0.274	1.50428	0.77972
0.278	1.53980	0.76712
0.282	1.57183	0.75135
0.286	1.60011	0.73323
0.290	1.62460	0.71353
0.294	1.64540	0.69294
0.298	1.66274	0.67206
0.302	1.67691	0.65138
0.306	1.68826	0.63125
0.310	1.69714	0.61195
0.314	1.70389	0.59364
0.318	1.70884	0.57645
0.322	1.71227	0.56042
0.326	1.71444	0.54556
0.330	1.71557	0.53186
0.334	1.71587	0.51928
0.338	1.71548	0.50776
0.342	1.71455	0.49725
0.346	1.71320	0.48768
0.350	1.71151	0.47899
0.354	1.70957	0.47112
0.358	1.70744	0.46400
0.362	1.70518	0.45758
0.366	1.70283	0.45180
0.370	1.70042	0.44661
0.374	1.69799	0.44196
0.378	1.69556	0.43781
0.382	1.69315	0.43412
0.386	1.69076	0.43086
0.390	1.68842	0.42798
0.394	1.68613	0.42546
0.398	1.68391	0.42327
0.402	1.68174	0.42139
0.406	1.67965	0.41978
0.410	1.67763	0.41844
0.414	1.67569	0.41733
0.418	1.67382	0.41645
0.422	1.67202	0.41577
0.426	1.67030	0.41528
0.430	1.66866	0.41497
0.434	1.66709	0.41482
0.438	1.66560	0.41482
0.442	1.66417	0.41497
0.446	1.66282	0.41524
0.450	1.66154	0.41564
0.454	1.66032	0.41616
0.458	1.65918	0.41678
0.462	1.65809	0.41750
0.466	1.65707	0.41831
0.470	1.65611	0.41921
0.474	1.65521	0.42019
0.478	1.65437	0.42125
0.482	1.65358	0.42238
0.486	1.65285	0.42358
0.490	1.65217	0.42484
0.494	1.65154	0.42616
0.498	1.65096	0.42753
0.502	1.65043	0.42896
0.506	1.64995	0.43043
0.510	1.64951	0.43195
0.514	1.64912	0.43352
0.518	1.64877	0.43512
0.522	1.64846	0.43677
0.526	1.64820	0.43845
0.530	1.64797	0.44016
0.534	1.64778	0.44190
0.538	1.64762	0.44368
0.542	1.64751	0.44548
0.546	1.64743	0.44731
0.550	1.64738	0.44917
0.554	1.64736	0.45105
0.558	1.64738	0.45295
0.562	1.64743	0.45487
0.566	1.64750	0.45681
0.570	1.64761	0.45877
0.574	1.64775	0.46075
0.578	1.64791	0.46275
0.582	1.64810	0.46476
0.586	1.64832	0.46678
0.590	1.64856	0.46882
0.594	1.64883	0.47087
0.598	1.64913	0.47294
0.602	1.64944	0.47501
0.606	1.64978	0.47710
0.610	1.65015	0.47919
0.614	1.65053	0.48130
0.618	1.65094	0.48341
0.622	1.65136	0.48554
0.626	1.65181	0.48767
0.630	1.65228	0.48981
0.634	1.65277	0.49195
0.638	1.65327	0.49410
0.642	1.65380	0.49626
0.646	1.65434	0.49842
0.650	1.65490	0.50059
0.654	1.65548	0.50276
0.658	1.65607	0.50493
0.662	1.65668	0.50711
0.666	1.65731	0.50930
0.670	1.65795	0.51148
0.674	1.65861	0.51367
0.678	1.65928	0.51587
0.682	1.65997	0.51806
0.686	1.66068	0.52026
0.690	1.66139	0.52245
0.694	1.66212	0.52465
0.698	1.66287	0.52685
0.702	1.66363	0.52906
0.706	1.66440	0.53126
0.710	1.66518	0.53346
0.714	1.66598	0.53567
0.718	1.66678	0.53787
0.722	1.66760	0.54007
0.726	1.66844	0.54228
0.730	1.66928	0.54448
0.734	1.67013	0.54669
0.738	1.67100	0.54889
0.742	1.67187	0.55109
0.746	1.67276	0.55329
0.750	1.67366	0.55549
0.754	1.67457	0.55769
0.758	1.67548	0.55989
0.762	1.67641	0.56209
0.766	1.67735	0.56428
0.770	1.67830	0.56648
0.774	1.67925	0.56867
0.778	1.68022	0.57086
0.782	1.68119	0.57304
0.786	1.68217	0.57523
0.790	1.68316	0.57741
0.794	1.68416	0.57960
0.798	1.68517	0.58178
0.802	1.68619	0.58395
0.806	1.68721	0.58613
0.810	1.68825	0.58830
0.814	1.68929	0.59047
0.818	1.69033	0.59264
0.822	1.69139	0.59480
0.826	1.69245	0.59696
0.830	1.69352	0.59912
0.834	1.69460	0.60127
0.838	1.69568	0.60343
0.842	1.69677	0.60558
0.846	1.69787	0.60772
0.850	1.69898	0.60987
0.854	1.70009	0.61201
0.858	1.70121	0.61414
0.862	1.70233	0.61628
0.866	1.70346	0.61841
0.870	1.70460	0.62053
0.874	1.70574	0.62266
0.878	1.70689	0.62478
0.882	1.70804	0.62690
0.886	1.70920	0.62901
0.890	1.71036	0.63112
0.894	1.71154	0.63322
0.898	1.71271	0.63533
0.902	1.71389	0.63743
0.906	1.71508	0.63952
0.910	1.71627	0.64161
0.914	1.71747	0.64370
0.918	1.71867	0.64579
0.922	1.71988	0.64787
0.926	1.72109	0.64994
0.930	1.72231	0.65202
0.934	1.72353	0.65408
0.938	1.72476	0.65615
0.942	1.72599	0.65821
0.946	1.72723	0.66027
0.950	1.72847	0.66232
0.954	1.72971	0.66437
0.958	1.73096	0.66642
0.962	1.73222	0.66846
0.966	1.73347	0.67050
0.970	1.73474	0.67253
0.974	1.73600	0.67456
0.978	1.73727	0.67659
0.982	1.73855	0.67861
0.986	1.73982	0.68063
0.990	1.74111	0.68264
0.994	1.74239	0.68465
0.998	1.74368	0.68665
1.002	1.74498	0.68866
1.006	1.74627	0.69065
1.010	1.74757	0.69265
1.014	1.74888	0.69464
1.018	1.75018	0.69662
1.022	1.75149	0.69860
1.026	1.75281	0.70058
1.030	1.75413	0.70255
1.034	1.75545	0.70452
1.038	1.75677	0.70649
1.042	1.75810	0.70845
1.046	1.75943	0.71040
1.050	1.76076	0.71236
1.054	1.76210	0.71430
1.058	1.76344	0.71625
1.062	1.76478	0.71819
1.066	1.76613	0.72012
1.070	1.76748	0.72205
1.074	1.76883	0.72398
1.078	1.77018	0.72591
1.082	1.77154	0.72782
1.086	1.77290	0.72974
1.090	1.77426	0.73165
1.094	1.77563	0.73356
1.098	1.77699	0.73546
1.102	1.77836	0.73736
1.106	1.77974	0.73925
1.110	1.78111	0.74114
1.114	1.78249	0.74303
1.118	1.78387	0.74491
1.122	1.78525	0.74679
1.126	1.78664	0.74866
1.130	1.78802	0.75053
1.134	1.78941	0.75240
1.138	1.79081	0.75426
1.142	1.79220	0.75611
1.146	1.79360	0.75797
1.150	1.79500	0.75981
1.154	1.79640	0.76166
1.158	1.79780	0.76350
1.162	1.79920	0.76534
1.166	1.80061	0.76717
1.170	1.80202	0.76900
1.174	1.80343	0.77082
1.178	1.80484	0.77264
1.182	1.80626	0.77446
1.186	1.80768	0.77627
1.190	1.80909	0.77808
1.194	1.81051	0.77988
1.198	1.81194	0.78168
1.202	1.81336	0.78347
1.206	1.81479	0.78527
1.210	1.81622	0.78705
1.214	1.81764	0.78884
1.218	1.81908	0.79062
1.222	1.82051	0.79239
1.226	1.82194	0.79416
1.230	1.82338	0.79593
1.234	1.82482	0.79769
1.238	1.82626	0.79945
1.242	1.82770	0.80121
1.246	1.82914	0.80296
1.250	1.83059	0.80470
1.254	1.83203	0.80645
1.258	1.83348	0.80819
1.262	1.83493	0.80992
1.266	1.83638	0.81165
1.270	1.83783	0.81338
1.274	1.83928	0.81510
1.278	1.84073	0.81682
1.282	1.84219	0.81854
1.286	1.84365	0.82025
1.290	1.84511	0.82195
1.294	1.84656	0.82366
1.298	1.84803	0.82536
1.302	1.84949	0.82705
1.306	1.85095	0.82874
1.310	1.85242	0.83043
1.314	1.85388	0.83212
1.318	1.85535	0.83379
1.322	1.85682	0.83547
1.326	1.85829	0.83714
1.330	1.85976	0.83881
1.334	1.86123	0.84048
1.338	1.86270	0.84214
1.342	1.86417	0.84379
1.346	1.86565	0.84545
1.350	1.86712	0.84709
1.354	1.86860	0.84874
1.358	1.87008	0.85038
1.362	1.87156	0.85202
1.366	1.87304	0.85365
1.370	1.87452	0.85528
1.374	1.87600	0.85691
1.378	1.87748	0.85853
1.382	1.87896	0.86015
1.386	1.88045	0.86176
1.390	1.88193	0.86337
1.394	1.88342	0.86498
1.398	1.88491	0.86659
1.402	1.88640	0.86819
1.406	1.88788	0.86978
1.410	1.88937	0.87137
1.414	1.89086	0.87296
1.418	1.89236	0.87455
1.422	1.89385	0.87613
1.426	1.89534	0.87771
1.430	1.89683	0.87928
1.434	1.89833	0.88085
1.438	1.89982	0.88242
1.442	1.90132	0.88398
1.446	1.90281	0.88554
1.450	1.90431	0.88709
1.454	1.90581	0.88865
1.458	1.90731	0.89019
1.462	1.90881	0.89174
1.466	1.91031	0.89328
1.470	1.91181	0.89482
1.474	1.91331	0.89635
1.478	1.91481	0.89788
1.482	1.91631	0.89941
1.486	1.91781	0.90093
1.490	1.91932	0.90245
1.494	1.92082	0.90397
1.498	1.92232	0.90548
1.502	1.92383	0.90699
1.506	1.92533	0.90849
1.510	1.92684	0.90999
1.514	1.92835	0.91149
1.518	1.92985	0.91299
1.522	1.93136	0.91448
1.526	1.93287	0.91597
1.530	1.93438	0.91745
1.534	1.93589	0.91893
1.538	1.93739	0.92041
1.542	1.93890	0.92188
1.546	1.94041	0.92335
1.550	1.94192	0.92482
1.554	1.94344	0.92628
1.558	1.94495	0.92774
1.562	1.94646	0.92920
1.566	1.94797	0.93065
1.570	1.94948	0.93210
1.574	1.95100	0.93355
1.578	1.95251	0.93499
1.582	1.95402	0.93643
1.586	1.95554	0.93787
1.590	1.95705	0.93930
1.594	1.95856	0.94073
1.598	1.96008	0.94215
1.602	1.96159	0.94358
1.606	1.96311	0.94500
1.610	1.96462	0.94641
1.614	1.96614	0.94782
1.618	1.96766	0.94923
1.622	1.96917	0.95064
1.626	1.97069	0.95204
1.630	1.97221	0.95344
1.634	1.97372	0.95484
1.638	1.97524	0.95623
1.642	1.97676	0.95762
1.646	1.97828	0.95901
1.650	1.97979	0.96039
1.654	1.98131	0.96177
1.658	1.98283	0.96314
1.662	1.98435	0.96452
1.666	1.98587	0.96589
1.670	1.98738	0.96725
1.674	1.98890	0.96862
1.678	1.99042	0.96998
1.682	1.99194	0.97134
1.686	1.99346	0.97269
1.690	1.99498	0.97404
1.694	1.99650	0.97539
1.698	1.99802	0.97673
