Material: specs / schott / F2
Optical constants. SCHOTT Zemax catalog 2017-01-20b (obtained from http://www.schott.com)See also SCHOTT glass data sheets
Comments: lead containing glass type
Conditions: {"temperature": 293}
Properties: {"thermal_dispersion": [{"type": "formula A", "coefficients": "1.51e-06 1.56e-08 -2.78e-11 9.34e-07 1.04e-09 0.25"}], "nd": 1.62004, "Vd": 36.37, "glass_code": 620364.36, "glass_status": "standard", "density": [{"value": 3599}], "thermal_expansion": [{"temperature_range": "243 343", "value": 8.2e-06}, {"temperature_range": "293 573", "value": 9.2e-06}], "dPgF": 0.0002, "resistance": {"climatic": 1.0, "stain": 0.0, "acid": 1.0, "alkali": 2.3, "phosphate": 1.3}}
Dispersion formula 2, range 0.32 2.5 um, coefficients 0 1.34533359 0.00997743871 0.209073176 0.0470450767 0.937357162 111.886764
wavelength (um)	k
0.334	1.6542E-06
0.350	2.7681E-07
0.365	9.5613E-08
0.370	7.2874E-08
0.380	4.5603E-08
0.390	2.8886E-08
0.400	1.9243E-08
0.405	1.6869E-08
0.420	1.2087E-08
0.436	9.7490E-09
0.460	8.8118E-09
0.500	4.7818E-09
0.546	3.4794E-09
0.580	3.6961E-09
0.620	3.9510E-09
0.660	6.3120E-09
0.700	4.4608E-09
1.060	6.7549E-09
1.530	5.3868E-08
1.970	8.3017E-07
2.325	2.8000E-06
2.500	4.2123E-06
