Material: specs / schott / LAFN7
Optical constants. SCHOTT Zemax catalog 2017-01-20b (obtained from http://www.schott.com)See also SCHOTT glass data sheets
Comments: lead containing glass type
Conditions: {"temperature": 293}
Properties: {"thermal_dispersion": [{"type": "formula A", "coefficients": "7.27e-06 1.31e-08 -3.32e-11 8.88e-07 9.32e-10 0.248"}], "nd": 1.7495, "Vd": 34.95, "glass_code": 750350.438, "glass_status": "standard", "density": [{"value": 4380}], "thermal_expansion": [{"temperature_range": "243 343", "value": 5.3e-06}, {"temperature_range": "293 573", "value": 6.4e-06}], "dPgF": -0.0025, "resistance": {"climatic": 3.0, "stain": 1.0, "acid": 53.3, "alkali": 2.2, "phosphate": 4.3}}
Dispersion formula 2, range 0.35 2.5 um, coefficients 0 1.66842615 0.0103159999 0.298512803 0.0469216348 1.0774376 82.5078509
wavelength (um)	k
0.350	5.1305E-06
0.365	1.7592E-06
0.370	1.0792E-06
0.380	5.2107E-07
0.390	3.0844E-07
0.400	2.0693E-07
0.405	1.6480E-07
0.420	8.2721E-08
0.436	4.9445E-08
0.460	2.6596E-08
0.500	9.5781E-09
0.546	1.0459E-08
0.580	9.2541E-09
0.620	9.8924E-09
0.660	1.0531E-08
0.700	8.9305E-09
1.060	1.3523E-08
1.530	1.9881E-07
1.970	1.0191E-06
2.325	6.5985E-06
2.500	1.9162E-05
