Material: specs / schott / LAK9G15
Optical constants. SCHOTT Zemax catalog 2017-01-20b (obtained from http://www.schott.com)See also SCHOTT glass data sheets
Comments: inquiry glass
Properties: {"nd": 1.69064, "Vd": 54.76, "glass_code": 691548.353, "glass_status": "special", "density": [{"value": 3525}], "thermal_expansion": [{"temperature_range": "243 343", "value": 6.34e-06}, {"temperature_range": "293 573", "value": 7.56e-06}], "dPgF": -0.0055, "resistance": {"climatic": 1.0, "stain": 2.0, "acid": 53.0, "alkali": 1.3, "phosphate": 4.3}}
Dispersion formula 2, range 0.38 2.5 um, coefficients 0 1.28773667 0.0055754192 0.518244853 0.0223679524 26.1756109 1892.2533
wavelength (um)	k
0.390	5.7169E-06
0.400	4.0984E-06
0.405	3.1042E-06
0.420	1.5233E-06
0.436	7.8013E-07
0.460	3.0854E-07
0.500	1.1550E-07
0.546	6.3721E-08
0.580	5.0533E-08
0.620	4.3902E-08
0.660	3.8160E-08
0.700	3.1415E-08
1.060	1.3523E-08
1.530	6.3727E-08
1.970	5.9139E-07
2.325	5.2793E-06
2.500	1.4583E-05
