Material: specs / schott / N-BALF5
Optical constants. SCHOTT Zemax catalog 2017-01-20b (obtained from http://www.schott.com)See also SCHOTT glass data sheets
Conditions: {"temperature": 293}
Properties: {"thermal_dispersion": [{"type": "formula A", "coefficients": "1.14e-06 1.29e-08 -1.46e-11 5.02e-07 5.87e-10 0.219"}], "nd": 1.54739, "Vd": 53.63, "glass_code": 547536.261, "glass_status": "standard", "density": [{"value": 2614}], "thermal_expansion": [{"temperature_range": "243 343", "value": 7.34e-06}, {"temperature_range": "293 573", "value": 8.43e-06}], "dPgF": -0.0004, "resistance": {"climatic": 1.0, "stain": 0.0, "acid": 1.0, "alkali": 2.0, "phosphate": 1.0}}
Dispersion formula 2, range 0.35 2.5 um, coefficients 0 1.28385965 0.00825815975 0.0719300942 0.0441920027 1.05048927 107.097324
wavelength (um)	k
0.350	2.2903E-06
0.365	5.9349E-07
0.370	4.0337E-07
0.380	1.9658E-07
0.390	1.0351E-07
0.400	5.5961E-08
0.405	4.5929E-08
0.420	2.9740E-08
0.436	2.2385E-08
0.460	1.7677E-08
0.500	1.2784E-08
0.546	8.7117E-09
0.580	9.2541E-09
0.620	1.3863E-08
0.660	1.4758E-08
0.700	1.1169E-08
1.060	3.0504E-08
1.530	1.3330E-07
1.970	1.3214E-06
2.325	5.1298E-06
2.500	9.5809E-06
