Material: specs / schott / N-BAK4HT
Optical constants. SCHOTT Zemax catalog 2017-01-20b (obtained from http://www.schott.com)See also SCHOTT glass data sheets
Conditions: {"temperature": 293}
Properties: {"thermal_dispersion": [{"type": "formula A", "coefficients": "3.06e-06 1.44e-08 -2.23e-11 5.46e-07 6.05e-10 0.189"}], "nd": 1.56883, "Vd": 55.98, "glass_code": 569560.305, "glass_status": "standard", "density": [{"value": 3046}], "thermal_expansion": [{"temperature_range": "243 343", "value": 6.99e-06}, {"temperature_range": "293 573", "value": 7.93e-06}], "dPgF": -0.001, "resistance": {"climatic": 1.0, "stain": 0.0, "acid": 1.2, "alkali": 1.0, "phosphate": 1.0}}
Dispersion formula 2, range 0.334 2.5 um, coefficients 0 1.28834642 0.00779980626 0.132817724 0.0315631177 0.945395373 105.965875
wavelength (um)	k
0.334	2.5025E-06
0.350	5.7843E-07
0.365	1.7658E-07
0.370	1.2409E-07
0.380	6.3317E-08
0.390	3.5255E-08
0.400	2.1831E-08
0.405	1.9484E-08
0.420	1.2087E-08
0.436	1.1147E-08
0.460	1.0286E-08
0.500	7.9777E-09
0.546	6.9658E-09
0.580	7.3996E-09
0.620	7.9099E-09
0.660	8.4202E-09
0.700	8.9305E-09
1.060	6.7549E-09
1.530	4.4030E-08
1.970	3.2825E-07
2.325	1.5504E-06
2.500	3.1513E-06
