Material: specs / schott / N-KZFS8
Optical constants. SCHOTT Zemax catalog 2017-01-20b (obtained from http://www.schott.com)See also SCHOTT glass data sheets
Comments: suitable for precision molding. step 0.5 available
Conditions: {"temperature": 293}
Properties: {"thermal_dispersion": [{"type": "formula A", "coefficients": "7.93e-07 6.47e-09 -5e-12 7.71e-07 1.01e-09 0.254"}], "nd": 1.72047, "Vd": 34.7, "glass_code": 720347.32, "glass_status": "standard", "density": [{"value": 3204}], "thermal_expansion": [{"temperature_range": "243 343", "value": 7.77e-06}, {"temperature_range": "293 573", "value": 9.43e-06}], "dPgF": -0.0021, "resistance": {"climatic": 1.0, "stain": 0.0, "acid": 1.0, "alkali": 1.0, "phosphate": 1.0}}
Dispersion formula 2, range 0.334 2.5 um, coefficients 0 1.62693651 0.010880863 0.24369876 0.0494207753 1.62007141 131.009163
wavelength (um)	k
0.334	4.8960E-06
0.350	1.1382E-06
0.365	4.4807E-07
0.370	3.5463E-07
0.380	2.4004E-07
0.390	1.7288E-07
0.400	1.2008E-07
0.405	1.0749E-07
0.420	8.2721E-08
0.436	6.3901E-08
0.460	4.3090E-08
0.500	2.4054E-08
0.546	1.2209E-08
0.580	9.2541E-09
0.620	9.8924E-09
0.660	1.0531E-08
0.700	8.9305E-09
1.060	3.3758E-09
1.530	8.3504E-08
1.970	5.2286E-07
2.325	2.6396E-06
2.500	5.3583E-06
