Material: specs / schott / N-LASF46A
Optical constants. SCHOTT Zemax catalog 2017-01-20b (obtained from http://www.schott.com)See also SCHOTT glass data sheets
Conditions: {"temperature": 293}
Properties: {"thermal_dispersion": [{"type": "formula A", "coefficients": "3.53e-06 1.24e-08 -1.87e-11 8.39e-07 1.04e-09 0.275"}], "nd": 1.90366, "Vd": 31.32, "glass_code": 904313.445, "glass_status": "standard", "density": [{"value": 4449}], "thermal_expansion": [{"temperature_range": "243 343", "value": "6e-06"}, {"temperature_range": "293 573", "value": 7.15e-06}], "dPgF": 0.0042, "resistance": {"climatic": 1.0, "stain": 0.0, "acid": 3.0, "alkali": 1.0, "phosphate": 1.0}}
Dispersion formula 2, range 0.37 2.5 um, coefficients 0 2.16701566 0.0123595524 0.319812761 0.0560610282 1.66004486 107.047718
wavelength (um)	k
0.370	5.0274E-06
0.380	2.0742E-06
0.390	1.0769E-06
0.400	6.5040E-07
0.405	5.3566E-07
0.420	3.3217E-07
0.436	2.2555E-07
0.460	1.5427E-07
0.500	8.1636E-08
0.546	3.8662E-08
0.580	3.3534E-08
0.620	3.3838E-08
0.660	3.1751E-08
0.700	2.4646E-08
1.060	1.0137E-08
1.530	1.1332E-07
1.970	7.3075E-07
2.325	4.2911E-06
2.500	1.1695E-05
