Material: specs / schott / N-PSK53A
Optical constants. SCHOTT Zemax catalog 2017-01-20b (obtained from http://www.schott.com)See also SCHOTT glass data sheets
Comments: step 0.5 available
Conditions: {"temperature": 293}
Properties: {"thermal_dispersion": [{"type": "formula A", "coefficients": "-9.28e-06 7.19e-09 1.45e-12 4.06e-07 3.17e-10 0.19"}], "nd": 1.618, "Vd": 63.39, "glass_code": 618634.357, "glass_status": "standard", "density": [{"value": 3568}], "thermal_expansion": [{"temperature_range": "243 343", "value": 9.56e-06}, {"temperature_range": "293 573", "value": 1.084e-05}], "dPgF": 0.0052, "resistance": {"climatic": 1.0, "stain": 1.0, "acid": 53.3, "alkali": 2.3, "phosphate": 4.3}}
Dispersion formula 2, range 0.32 2.5 um, coefficients 0 1.38121836 0.00706416337 0.196745645 0.0233251345 0.886089205 97.4847345
wavelength (um)	k
0.320	3.5718E-06
0.334	1.7111E-06
0.350	7.0731E-07
0.365	2.8867E-07
0.370	2.1945E-07
0.380	1.2744E-07
0.390	7.6813E-08
0.400	4.6682E-08
0.405	3.9267E-08
0.420	2.8374E-08
0.436	2.5209E-08
0.460	2.0644E-08
0.500	1.2784E-08
0.546	8.7117E-09
0.580	1.1111E-08
0.620	1.5852E-08
0.660	1.4758E-08
0.700	1.3409E-08
1.060	2.0305E-08
1.530	2.1914E-07
1.970	1.3993E-06
2.325	4.9832E-06
2.500	9.8507E-06
