Material: specs / schott / N-SF64
Optical constants. SCHOTT Zemax catalog 2017-01-20b (obtained from http://www.schott.com)See also SCHOTT glass data sheets
Comments: inquiry glass
Conditions: {"temperature": 293}
Properties: {"thermal_dispersion": [{"type": "formula A", "coefficients": "-2.06e-06 9.78e-09 -1.67e-11 8.67e-07 1.23e-09 0.279"}], "nd": 1.70591, "Vd": 30.23, "glass_code": 706302.299, "glass_status": "special", "density": [{"value": 2989}], "thermal_expansion": [{"temperature_range": "243 343", "value": 8.48e-06}, {"temperature_range": "293 573", "value": 9.78e-06}], "dPgF": 0.0099, "resistance": {"climatic": 1.0, "stain": 0.0, "acid": 1.0, "alkali": 1.2, "phosphate": 1.0}}
Dispersion formula 2, range 0.37 2.5 um, coefficients 0 1.59163762 0.0118623434 0.219908428 0.0594585499 1.46929315 133.310762
wavelength (um)	k
0.370	4.6074E-06
0.380	1.8315E-06
0.390	9.1116E-07
0.400	5.0990E-07
0.405	4.0571E-07
0.420	2.2833E-07
0.436	1.5395E-07
0.460	1.0626E-07
0.500	6.3313E-08
0.546	3.1568E-08
0.580	2.9778E-08
0.620	3.7858E-08
0.660	4.2443E-08
0.700	3.3676E-08
1.060	1.3523E-08
1.530	1.0336E-07
1.970	8.0161E-07
2.325	3.3028E-06
2.500	5.2038E-06
