Material: specs / schott / N-SK11
Optical constants. SCHOTT Zemax catalog 2017-01-20b (obtained from http://www.schott.com)See also SCHOTT glass data sheets
Conditions: {"temperature": 293}
Properties: {"thermal_dispersion": [{"type": "formula A", "coefficients": "2.14e-06 1.27e-08 -7.21e-11 3.51e-07 5.41e-10 0.238"}], "nd": 1.56384, "Vd": 60.8, "glass_code": 564608.308, "glass_status": "standard", "density": [{"value": 3080}], "thermal_expansion": [{"temperature_range": "243 343", "value": 6.5e-06}, {"temperature_range": "293 573", "value": 7.6e-06}], "dPgF": -0.0004, "resistance": {"climatic": 2.0, "stain": 0.0, "acid": 2.0, "alkali": 1.0, "phosphate": 2.3}}
Dispersion formula 2, range 0.3 2.5 um, coefficients 0 1.17963631 0.00680282081 0.229817295 0.0219737205 0.935789652 101.513232
wavelength (um)	k
0.300	3.7357E-06
0.310	1.8083E-06
0.320	9.0817E-07
0.334	3.6412E-07
0.350	1.4242E-07
0.365	7.1889E-08
0.370	6.0411E-08
0.380	4.5603E-08
0.390	3.7812E-08
0.400	3.2236E-08
0.405	2.6044E-08
0.420	2.0205E-08
0.436	1.6755E-08
0.460	1.4716E-08
0.500	9.5781E-09
0.546	5.2218E-09
0.580	7.3996E-09
0.620	9.8924E-09
0.660	1.0531E-08
0.700	8.9305E-09
1.060	1.6913E-08
1.530	7.8552E-08
1.970	5.2286E-07
2.325	2.3291E-06
2.500	4.9035E-06
