Material: specs / schott / P-LASF50
Optical constants. SCHOTT Zemax catalog 2017-01-20b (obtained from http://www.schott.com)See also SCHOTT glass data sheets
Comments: suitable for precision molding
Conditions: {"temperature": 293}
Properties: {"thermal_dispersion": [{"type": "formula A", "coefficients": "8.04e-06 1.2e-08 -2.19e-11 8.2e-07 9.08e-10 0.209"}], "nd": 1.8086, "Vd": 40.46, "glass_code": 809405.454, "glass_status": "standard", "density": [{"value": 4541}], "thermal_expansion": [{"temperature_range": "243 343", "value": 5.9e-06}, {"temperature_range": "293 573", "value": 7.32e-06}], "dPgF": -0.0078}
Dispersion formula 2, range 0.334 2.5 um, coefficients 0 1.84910553 0.00999234757 0.329828674 0.0387437988 1.30400901 95.8967681
wavelength (um)	k
0.334	3.7280E-06
0.350	1.1696E-06
0.365	5.0050E-07
0.370	3.8689E-07
0.380	2.2538E-07
0.390	1.4467E-07
0.400	1.0616E-07
0.405	9.3555E-08
0.420	6.8574E-08
0.436	5.2324E-08
0.460	3.7071E-08
0.500	2.0826E-08
0.546	1.3960E-08
0.580	1.4829E-08
0.620	1.5852E-08
0.660	1.4758E-08
0.700	1.1169E-08
1.060	6.7549E-09
1.530	9.3423E-08
1.970	8.0161E-07
2.325	4.6985E-06
2.500	1.2807E-05
