Material: specs / schott / P-SF68
Optical constants. SCHOTT Zemax catalog 2017-01-20b (obtained from http://www.schott.com)See also SCHOTT glass data sheets
Comments: suitable for precision molding
Conditions: {"temperature": 293}
Properties: {"thermal_dispersion": [{"type": "formula A", "coefficients": "1.55e-05 2.3e-08 -3.46e-11 2.76e-06 2.93e-09 0.297"}], "nd": 2.0052, "Vd": 21, "glass_status": "standard", "density": [{"value": 6194}], "thermal_expansion": [{"temperature_range": "243 343", "value": 8.43e-06}, {"temperature_range": "293 573", "value": 9.67e-06}], "dPgF": 0.0308, "resistance": {"climatic": 1.0, "stain": 5.0, "acid": 53.3, "alkali": 2.3, "phosphate": 2.3}}
Dispersion formula 2, range 0.42 2.5 um, coefficients 0 2.3330067 0.0168838419 0.452961396 0.0716086325 1.25172339 118.707479
wavelength (um)	k
0.420	4.0050E-06
0.436	1.9239E-06
0.460	1.0149E-06
0.500	3.9544E-07
0.546	1.0754E-07
0.580	5.0533E-08
0.620	2.9827E-08
0.660	2.3237E-08
0.700	1.5652E-08
1.060	6.7549E-09
1.530	4.8947E-08
1.970	3.8800E-07
2.325	1.8388E-06
2.500	4.6140E-06
