Material: specs / schott / SF5
Optical constants. SCHOTT Zemax catalog 2017-01-20b (obtained from http://www.schott.com)See also SCHOTT glass data sheets
Comments: lead containing glass type
Conditions: {"temperature": 293}
Properties: {"thermal_dispersion": [{"type": "formula A", "coefficients": "2.59e-06 1.76e-08 -2.03e-11 1.17e-06 1.09e-09 0.255"}], "nd": 1.6727, "Vd": 32.21, "glass_code": 673322.407, "glass_status": "standard", "density": [{"value": 4070}], "thermal_expansion": [{"temperature_range": "243 343", "value": 8.2e-06}, {"temperature_range": "293 573", "value": "9e-06"}], "dPgF": 0.0023, "resistance": {"climatic": 1.0, "stain": 1.0, "acid": 2.0, "alkali": 2.3, "phosphate": 3.0}}
Dispersion formula 2, range 0.35 2.5 um, coefficients 0 1.46141885 0.0111826126 0.247713019 0.0508594669 0.949995832 112.041888
wavelength (um)	k
0.350	1.3048E-06
0.365	3.6564E-07
0.370	2.6281E-07
0.380	1.5462E-07
0.390	1.0351E-07
0.400	6.5309E-08
0.405	5.3969E-08
0.420	3.6593E-08
0.436	2.5209E-08
0.460	1.7677E-08
0.500	1.1180E-08
0.546	6.9658E-09
0.580	7.3996E-09
0.620	9.8924E-09
0.660	1.0531E-08
0.700	8.9305E-09
1.060	1.3523E-08
1.530	6.3727E-08
1.970	6.6068E-07
2.325	2.2284E-06
2.500	3.3066E-06
