Material: specs / schott / SF57
Optical constants. SCHOTT Zemax catalog 2017-01-20b (obtained from http://www.schott.com)See also SCHOTT glass data sheets
Comments: lead containing glass type. suitable for precision molding
Conditions: {"temperature": 293}
Properties: {"thermal_dispersion": [{"type": "formula A", "coefficients": "7.26e-06 1.88e-08 -5.14e-11 1.96e-06 1.79e-09 0.276"}], "nd": 1.84666, "Vd": 23.83, "glass_code": 847238.551, "glass_status": "standard", "density": [{"value": 5510}], "thermal_expansion": [{"temperature_range": "243 343", "value": 8.3e-06}, {"temperature_range": "293 573", "value": 9.2e-06}], "dPgF": 0.0123, "resistance": {"climatic": 2.0, "stain": 5.0, "acid": 52.3, "alkali": 2.3, "phosphate": 4.3}}
Dispersion formula 2, range 0.37 2.5 um, coefficients 0 1.81651371 0.0143704198 0.428893641 0.0592801172 1.07186278 121.419942
wavelength (um)	k
0.370	5.4237E-06
0.380	1.9589E-06
0.390	9.9127E-07
0.400	5.2905E-07
0.405	4.0571E-07
0.420	2.0164E-07
0.436	1.0072E-07
0.460	4.7621E-08
0.500	2.2439E-08
0.546	1.0459E-08
0.580	1.1111E-08
0.620	1.1877E-08
0.660	1.2643E-08
0.700	8.9305E-09
1.060	1.0137E-08
1.530	4.4030E-08
1.970	4.5507E-07
2.325	1.7445E-06
2.500	2.2893E-06
