Material: main / PtSe2 / Tharrault-8L
Optical constants. M. Tharrault, S. Ayari, M. Arfaoui, E. Desgué, R. Le Goff, P. Morfin, J. Palomo, M. Rosticher, S. Jaziri, B, Plaçais,P. Legagneux, F. Carosella, C. Voisin, R. Ferreira, E. Baudin. Optical absorption in indirect semiconductor to semimetal PtSe2 arises from direct transitions. Phys. Rev. Lett. 134, 066901 (2025) (Numerical data kindly provided by Marin Tharrault)
Comments: 8L CVT-grown exfoliated crystal. The optical indexes are computed from the 2D surface conductivity using σ2D·Z0 = −2πi·(t/λ)·(εr−1), where Z0 is the impedance of free space, i the imaginary unit, t the equivalent layered stack thickness and λ the free space wavelength. We use t = NL t0 with t0 = 5.1 Å the single layer thickness. The measurement method accuratly determines Im{εr} = 2nk, but only Re{εr} = n2 - k2 as long as the optical absorption is non-zero.
wavelength (um)	n	k
0.41536	4.32865	2.08677
0.41816	4.30014	2.13374
0.42100	4.29033	2.16845
0.42388	4.29042	2.17745
0.42680	4.29092	2.19607
0.42975	4.31191	2.21219
0.43275	4.34227	2.19068
0.43580	4.35553	2.20327
0.43888	4.35759	2.22568
0.44201	4.35958	2.25832
0.44519	4.37200	2.28197
0.44841	4.37139	2.31481
0.45167	4.38280	2.33967
0.45499	4.40328	2.35798
0.45835	4.37683	2.39998
0.46177	4.36791	2.44135
0.46523	4.38839	2.44819
0.46875	4.37939	2.49474
0.47232	4.39732	2.50349
0.47595	4.40256	2.52182
0.47963	4.40750	2.53636
0.48337	4.39957	2.57146
0.48717	4.41358	2.57483
0.49103	4.41768	2.59065
0.49495	4.41071	2.61108
0.49893	4.43019	2.60515
0.50298	4.42032	2.62549
0.50709	4.41864	2.63678
0.51128	4.40701	2.66328
0.51553	4.40276	2.67432
0.51985	4.40069	2.68880
0.52425	4.39964	2.70289
0.52872	4.39691	2.71825
0.53327	4.40271	2.72857
0.53789	4.40903	2.73165
0.54260	4.41337	2.74805
0.54739	4.42956	2.75254
0.55227	4.44570	2.75002
0.55723	4.46107	2.75056
0.56229	4.45287	2.78801
0.56743	4.49372	2.76332
0.57268	4.49205	2.79237
0.57801	4.51532	2.79140
0.58346	4.52787	2.79981
0.58900	4.53166	2.81391
0.59465	4.53564	2.84352
0.60041	4.60919	2.78713
0.60628	4.61014	2.84459
0.61227	4.63746	2.84804
0.61838	4.65602	2.86239
0.62461	4.68849	2.86861
0.63096	4.72066	2.87546
0.63745	4.76651	2.88230
0.64407	4.79301	2.90924
0.65084	4.84798	2.91169
0.65774	4.90925	2.90847
0.66479	4.90532	2.98431
0.67200	4.94088	3.01087
0.67937	4.98390	3.02822
0.68689	5.05054	3.01607
0.69459	5.10302	3.01054
0.70246	5.14611	3.02182
0.71051	5.20016	3.00336
0.71875	5.23507	3.01792
0.72718	5.28805	3.00933
0.73581	5.32923	3.03498
0.74465	5.36910	3.05945
0.75370	5.42645	3.07476
0.76298	5.48201	3.10549
0.77249	5.54557	3.14075
0.78223	5.62501	3.17615
0.79223	5.71982	3.20124
0.80249	5.82410	3.21418
0.81301	5.92317	3.23399
0.82382	6.03733	3.21501
0.83491	6.15528	3.16677
0.84631	6.28582	3.07506
0.85802	6.40291	2.96391
0.87006	6.47966	2.88086
0.88245	6.56310	2.76671
0.89519	6.62631	2.65604
0.90831	6.68477	2.54922
0.92182	6.72509	2.42511
0.93573	6.69155	2.32513
0.95007	6.72573	2.22479
0.96486	6.71749	2.13836
0.98011	6.74604	2.01761
0.99586	6.74620	1.90371
1.01212	6.79320	1.73426
1.02891	6.78966	1.62120
1.08283	6.56544	1.31857
1.10208	6.56154	1.22193
1.12203	6.50358	1.14039
1.14271	6.48873	1.03389
1.16417	6.45865	0.94536
1.18645	6.45887	0.87062
1.20960	6.41775	0.82970
1.23367	6.38302	0.77580
1.25860	6.36725	0.72596
1.28468	6.30937	0.70849
1.31186	6.27035	0.67290
1.34022	6.24175	0.63573
1.36984	6.28294	0.55962
1.40079	6.17218	0.52676
1.43318	6.16443	0.47885
1.46709	6.17161	0.42266
1.50266	6.17451	0.37247
1.53999	6.18919	0.31093
