Material: main / PtSe2 / Tharrault-2L
Optical constants. M. Tharrault, S. Ayari, M. Arfaoui, E. Desgué, R. Le Goff, P. Morfin, J. Palomo, M. Rosticher, S. Jaziri, B, Plaçais,P. Legagneux, F. Carosella, C. Voisin, R. Ferreira, E. Baudin. Optical absorption in indirect semiconductor to semimetal PtSe2 arises from direct transitions. Phys. Rev. Lett. 134, 066901 (2025) (Numerical data kindly provided by Marin Tharrault)
Comments: 2L CVT-grown exfoliated crystal. The optical indexes are computed from the 2D surface conductivity using σ2D·Z0 = −2πi·(t/λ)·(εr−1), where Z0 is the impedance of free space, i the imaginary unit, t the equivalent layered stack thickness and λ the free space wavelength. We use t = NL t0 with t0 = 5.1 Å the single layer thickness. The measurement method accuratly determines Im{εr} = 2nk, but only Re{εr} = n2 - k2 as long as the optical absorption is non-zero.
wavelength (um)	n	k
0.41605	4.79631	1.91116
0.41887	4.82041	1.88260
0.42171	4.81597	1.90193
0.42460	4.86064	1.87555
0.42753	4.85728	1.90078
0.43050	4.83150	1.93948
0.43351	4.84335	1.95455
0.43656	4.85378	1.96760
0.43966	4.86838	1.95588
0.44280	4.88843	1.95895
0.44599	4.86495	1.99472
0.44922	4.85171	2.03344
0.45250	4.79804	2.11607
0.45582	4.85963	2.07608
0.45920	4.75624	2.20697
0.46263	4.76957	2.23009
0.46611	4.79787	2.24118
0.46964	4.75135	2.32423
0.47322	4.87019	2.24843
0.47686	4.81835	2.33952
0.48056	4.85985	2.33984
0.48431	4.95899	2.29421
0.48813	4.87778	2.40777
0.49200	4.90557	2.42330
0.49594	4.93466	2.42672
0.49994	5.01751	2.38879
0.50400	5.04954	2.38359
0.50813	5.06224	2.39632
0.51233	5.09981	2.38657
0.51660	5.11370	2.38416
0.52094	5.10899	2.41277
0.52536	5.20611	2.33193
0.52985	5.17281	2.40137
0.53441	5.19777	2.40883
0.53906	5.27704	2.35901
0.54379	5.23863	2.45303
0.54860	5.37392	2.37421
0.55350	5.31575	2.50854
0.55849	5.41784	2.48586
0.56356	5.47118	2.50007
0.56873	5.48767	2.55424
0.57400	5.50517	2.60467
0.57937	5.54513	2.64512
0.58483	5.56356	2.70962
0.59040	5.61233	2.73791
0.59608	5.62807	2.79369
0.60187	5.31713	3.11912
0.60777	5.41749	3.08610
0.61378	5.45996	3.12574
0.61992	5.52347	3.11545
0.62618	5.58569	3.12673
0.63257	5.67252	3.09637
0.63909	5.74673	3.08442
0.64575	5.85509	3.01241
0.65255	5.96255	2.92778
0.65949	5.95802	2.92922
0.66658	5.93070	2.90947
0.67383	5.99269	2.82821
0.68123	6.02786	2.75179
0.68880	6.09146	2.63599
0.69654	6.11548	2.54317
0.70446	6.11678	2.47179
0.71255	6.11715	2.39645
0.72084	6.11283	2.31655
0.72932	6.12127	2.23646
0.73800	6.07954	2.18486
0.74689	6.07602	2.10889
0.75600	6.07414	2.03623
0.76533	6.07667	1.95144
0.77490	6.05547	1.88990
0.78471	6.06224	1.81878
0.79477	6.00924	1.78714
0.80509	5.98689	1.73213
0.81569	5.91017	1.71848
0.82656	5.87089	1.69593
0.83773	5.79008	1.70446
0.84921	5.85504	1.63056
0.86100	5.92952	1.57014
0.87313	5.92457	1.51655
0.88560	5.93474	1.46456
0.89844	5.89956	1.41623
0.91165	5.88284	1.35047
0.92526	5.88808	1.24681
0.93927	5.86302	1.16562
0.95372	5.35533	1.18530
0.96863	3.71757	1.57234
0.98400	3.97487	1.27972
0.99987	4.13104	1.08125
1.01626	4.13119	0.94521
1.03320	4.14797	0.90033
1.06883	4.77593	0.49429
1.08758	4.37094	0.57887
1.10700	4.47780	0.50398
1.12713	4.42123	0.50181
1.14800	4.21023	0.52523
1.16966	4.28151	0.45227
1.19216	3.05478	0.84094
1.21553	3.60156	0.57164
1.24021	2.11768	1.12856
1.26553	3.20560	0.61939
1.29191	1.36363	1.69040
1.31940	1.30126	1.64300
1.34809	1.29706	1.63715
1.37806	1.10187	1.48799
1.40939	1.17375	1.54197
1.44218	1.06258	1.45914
1.47653	0.88265	1.33382
1.51256	0.69515	1.21885
1.55038	0.63075	1.18128
