Material: main / As2S3 / Slavich-gamma
Optical constants. A. S. Slavich, G. A. Ermolaev, M. K. Tatmyshevskiy, A. N. Toksumakov, O. G. Matveeva, D. V. Grudinin, K. V. Voronin, A. Mazitov, K. V. Kravtsov, A. V. Syuy, D. M. Tsymbarenko, M. S. Mironov, S. M. Novikov, I. Kruglov, D. A. Ghazaryan, A. A. Vyshnevyy, A. V. Arsenin, V. S. Volkov, K. S Novoselov. Exploring van der Waals materials with high anisotropy: geometrical and optical approaches. Light Sci. Appl., 13, 68 (2024) (Numerical data kindly provided by Georgy Ermolaev)
Comments: Î³-axis.
wavelength (um)	n
0.500	3.38498
0.502	3.38047
0.504	3.37600
0.506	3.37160
0.508	3.36724
0.510	3.36294
0.512	3.35868
0.514	3.35448
0.516	3.35032
0.518	3.34621
0.520	3.34215
0.522	3.33814
0.524	3.33417
0.526	3.33025
0.528	3.32637
0.530	3.32253
0.532	3.31874
0.534	3.31499
0.536	3.31129
0.538	3.30762
0.540	3.30399
0.542	3.30041
0.544	3.29686
0.546	3.29336
0.548	3.28989
0.550	3.28646
0.552	3.28306
0.554	3.27971
0.556	3.27639
0.558	3.27310
0.560	3.26985
0.562	3.26664
0.564	3.26345
0.566	3.26031
0.568	3.25719
0.570	3.25411
0.572	3.25106
0.574	3.24804
0.576	3.24506
0.578	3.24210
0.580	3.23918
0.582	3.23628
0.584	3.23342
0.586	3.23058
0.588	3.22778
0.590	3.22500
0.592	3.22225
0.594	3.21953
0.596	3.21683
0.598	3.21416
0.600	3.21152
0.602	3.20891
0.604	3.20632
0.606	3.20375
0.608	3.20122
0.610	3.19870
0.612	3.19621
0.614	3.19375
0.616	3.19131
0.618	3.18889
0.620	3.18650
0.622	3.18413
0.624	3.18178
0.626	3.17946
0.628	3.17715
0.630	3.17487
0.632	3.17261
0.634	3.17037
0.636	3.16816
0.638	3.16596
0.640	3.16378
0.642	3.16163
0.644	3.15949
0.646	3.15738
0.648	3.15528
0.650	3.15321
0.652	3.15115
0.654	3.14911
0.656	3.14709
0.658	3.14509
0.660	3.14310
0.662	3.14114
0.664	3.13919
0.666	3.13726
0.668	3.13535
0.670	3.13345
0.672	3.13157
0.674	3.12971
0.676	3.12786
0.678	3.12603
0.680	3.12422
0.682	3.12242
0.684	3.12064
0.686	3.11888
0.688	3.11712
0.690	3.11539
0.692	3.11367
0.694	3.11196
0.696	3.11027
0.698	3.10859
0.700	3.10693
0.702	3.10528
0.704	3.10365
0.706	3.10203
0.708	3.10042
0.710	3.09883
0.712	3.09725
0.714	3.09569
0.716	3.09413
0.718	3.09259
0.720	3.09107
0.722	3.08955
0.724	3.08805
0.726	3.08656
0.728	3.08508
0.730	3.08362
0.732	3.08216
0.734	3.08072
0.736	3.07929
0.738	3.07787
0.740	3.07647
0.742	3.07507
0.744	3.07369
0.746	3.07232
0.748	3.07095
0.750	3.06960
0.752	3.06826
0.754	3.06693
0.756	3.06561
0.758	3.06430
0.760	3.06301
0.762	3.06172
0.764	3.06044
0.766	3.05917
0.768	3.05791
0.770	3.05667
0.772	3.05543
0.774	3.05420
0.776	3.05298
0.778	3.05177
0.780	3.05057
0.782	3.04938
0.784	3.04819
0.786	3.04702
0.788	3.04586
0.790	3.04470
0.792	3.04355
0.794	3.04241
0.796	3.04128
0.798	3.04016
0.800	3.03905
0.802	3.03795
0.804	3.03685
0.806	3.03576
0.808	3.03468
0.810	3.03361
0.812	3.03254
0.814	3.03149
0.816	3.03044
0.818	3.02940
0.820	3.02836
0.822	3.02734
0.824	3.02632
0.826	3.02531
0.828	3.02431
0.830	3.02331
0.832	3.02232
0.834	3.02134
0.836	3.02036
0.838	3.01940
0.840	3.01843
0.842	3.01748
0.844	3.01653
0.846	3.01559
0.848	3.01466
0.850	3.01373
0.852	3.01281
0.854	3.01189
0.856	3.01099
0.858	3.01008
0.860	3.00919
0.862	3.00830
0.864	3.00741
0.866	3.00654
0.868	3.00567
0.870	3.00480
0.872	3.00394
0.874	3.00309
0.876	3.00224
0.878	3.00140
0.880	3.00056
0.882	2.99973
0.884	2.99891
0.886	2.99809
0.888	2.99728
0.890	2.99647
0.892	2.99567
0.894	2.99487
0.896	2.99408
0.898	2.99329
0.900	2.99251
