Material: main / As2S3 / Synowicki-UV
Optical constants. R.A. Synowicki and T. E. Tiwald. Optical properties of bulk c-ZrO2, c-MgO and a-As2S3 determined by variable angle spectroscopic ellipsometry. Thin Solid Films 455-456, 248-255 (2004) Calculation scripts (Python): Synowicki 2004 - As2S3 -- UV.py Synowicki 2004 - Aux funcs.py
Comments: Data generated from oscillator model.
wavelength (um)	n	k
1.3010e-01	1.4707e+00	1.1987e+00
1.3075e-01	1.4801e+00	1.1939e+00
1.3141e-01	1.4892e+00	1.1887e+00
1.3207e-01	1.4982e+00	1.1831e+00
1.3275e-01	1.5068e+00	1.1772e+00
1.3343e-01	1.5151e+00	1.1708e+00
1.3411e-01	1.5231e+00	1.1641e+00
1.3480e-01	1.5307e+00	1.1570e+00
1.3550e-01	1.5378e+00	1.1495e+00
1.3621e-01	1.5444e+00	1.1417e+00
1.3693e-01	1.5505e+00	1.1336e+00
1.3765e-01	1.5560e+00	1.1252e+00
1.3838e-01	1.5608e+00	1.1166e+00
1.3912e-01	1.5650e+00	1.1078e+00
1.3986e-01	1.5685e+00	1.0987e+00
1.4062e-01	1.5712e+00	1.0896e+00
1.4138e-01	1.5731e+00	1.0804e+00
1.4215e-01	1.5742e+00	1.0713e+00
1.4293e-01	1.5744e+00	1.0622e+00
1.4372e-01	1.5737e+00	1.0533e+00
1.4451e-01	1.5721e+00	1.0446e+00
1.4532e-01	1.5696e+00	1.0363e+00
1.4613e-01	1.5662e+00	1.0284e+00
1.4695e-01	1.5619e+00	1.0211e+00
1.4779e-01	1.5567e+00	1.0144e+00
1.4863e-01	1.5506e+00	1.0084e+00
1.4948e-01	1.5438e+00	1.0034e+00
1.5034e-01	1.5362e+00	9.9926e-01
1.5121e-01	1.5279e+00	9.9620e-01
1.5209e-01	1.5191e+00	9.9431e-01
1.5299e-01	1.5098e+00	9.9366e-01
1.5389e-01	1.5001e+00	9.9433e-01
1.5480e-01	1.4902e+00	9.9640e-01
1.5572e-01	1.4802e+00	9.9991e-01
1.5666e-01	1.4703e+00	1.0049e+00
1.5761e-01	1.4606e+00	1.0114e+00
1.5856e-01	1.4513e+00	1.0194e+00
1.5953e-01	1.4426e+00	1.0288e+00
1.6052e-01	1.4345e+00	1.0397e+00
1.6151e-01	1.4274e+00	1.0520e+00
1.6251e-01	1.4213e+00	1.0655e+00
1.6353e-01	1.4164e+00	1.0803e+00
1.6457e-01	1.4129e+00	1.0960e+00
1.6561e-01	1.4108e+00	1.1127e+00
1.6667e-01	1.4105e+00	1.1301e+00
1.6774e-01	1.4119e+00	1.1480e+00
1.6882e-01	1.4154e+00	1.1658e+00
1.6992e-01	1.4204e+00	1.1831e+00
1.7104e-01	1.4264e+00	1.1999e+00
1.7217e-01	1.4335e+00	1.2163e+00
1.7331e-01	1.4415e+00	1.2323e+00
1.7447e-01	1.4503e+00	1.2480e+00
1.7564e-01	1.4600e+00	1.2634e+00
1.7683e-01	1.4705e+00	1.2784e+00
1.7804e-01	1.4818e+00	1.2930e+00
1.7926e-01	1.4938e+00	1.3072e+00
1.8051e-01	1.5066e+00	1.3210e+00
1.8176e-01	1.5200e+00	1.3343e+00
1.8304e-01	1.5341e+00	1.3472e+00
1.8433e-01	1.5488e+00	1.3596e+00
1.8564e-01	1.5641e+00	1.3714e+00
1.8697e-01	1.5799e+00	1.3828e+00
1.8832e-01	1.5962e+00	1.3936e+00
1.8969e-01	1.6130e+00	1.4039e+00
1.9108e-01	1.6302e+00	1.4136e+00
1.9249e-01	1.6477e+00	1.4227e+00
1.9392e-01	1.6656e+00	1.4313e+00
1.9537e-01	1.6838e+00	1.4394e+00
1.9685e-01	1.7021e+00	1.4469e+00
1.9834e-01	1.7207e+00	1.4539e+00
1.9986e-01	1.7395e+00	1.4604e+00
2.0141e-01	1.7584e+00	1.4664e+00
2.0297e-01	1.7774e+00	1.4720e+00
2.0457e-01	1.7965e+00	1.4772e+00
2.0618e-01	1.8156e+00	1.4821e+00
2.0782e-01	1.8349e+00	1.4866e+00
2.0949e-01	1.8541e+00	1.4909e+00
2.1119e-01	1.8735e+00	1.4950e+00
2.1291e-01	1.8930e+00	1.4989e+00
2.1466e-01	1.9125e+00	1.5027e+00
2.1645e-01	1.9323e+00	1.5064e+00
2.1826e-01	1.9523e+00	1.5101e+00
2.2010e-01	1.9726e+00	1.5137e+00
2.2197e-01	1.9932e+00	1.5173e+00
2.2387e-01	2.0143e+00	1.5209e+00
2.2581e-01	2.0359e+00	1.5245e+00
2.2778e-01	2.0581e+00	1.5279e+00
2.2979e-01	2.0810e+00	1.5313e+00
2.3183e-01	2.1046e+00	1.5345e+00
2.3391e-01	2.1291e+00	1.5374e+00
2.3603e-01	2.1544e+00	1.5399e+00
2.3818e-01	2.1806e+00	1.5419e+00
2.4038e-01	2.2079e+00	1.5434e+00
2.4261e-01	2.2360e+00	1.5441e+00
2.4489e-01	2.2651e+00	1.5439e+00
2.4721e-01	2.2951e+00	1.5428e+00
2.4957e-01	2.3260e+00	1.5404e+00
2.5198e-01	2.3576e+00	1.5369e+00
2.5444e-01	2.3899e+00	1.5319e+00
2.5695e-01	2.4228e+00	1.5255e+00
2.5950e-01	2.4560e+00	1.5175e+00
2.6211e-01	2.4896e+00	1.5079e+00
2.6477e-01	2.5233e+00	1.4966e+00
2.6749e-01	2.5570e+00	1.4837e+00
2.7026e-01	2.5905e+00	1.4691e+00
2.7309e-01	2.6238e+00	1.4529e+00
2.7597e-01	2.6567e+00	1.4350e+00
2.7892e-01	2.6891e+00	1.4155e+00
2.8194e-01	2.7208e+00	1.3946e+00
2.8502e-01	2.7519e+00	1.3722e+00
2.8817e-01	2.7822e+00	1.3483e+00
2.9139e-01	2.8116e+00	1.3232e+00
2.9468e-01	2.8401e+00	1.2968e+00
2.9804e-01	2.8677e+00	1.2693e+00
3.0149e-01	2.8944e+00	1.2406e+00
3.0501e-01	2.9200e+00	1.2108e+00
3.0862e-01	2.9446e+00	1.1799e+00
3.1231e-01	2.9682e+00	1.1480e+00
3.1610e-01	2.9907e+00	1.1152e+00
3.1997e-01	3.0121e+00	1.0813e+00
3.2395e-01	3.0323e+00	1.0465e+00
3.2802e-01	3.0513e+00	1.0107e+00
3.3220e-01	3.0691e+00	9.7390e-01
3.3648e-01	3.0855e+00	9.3620e-01
3.4088e-01	3.1005e+00	8.9759e-01
3.4539e-01	3.1140e+00	8.5809e-01
3.5003e-01	3.1259e+00	8.1774e-01
3.5479e-01	3.1360e+00	7.7660e-01
3.5968e-01	3.1444e+00	7.3474e-01
3.6470e-01	3.1508e+00	6.9224e-01
3.6987e-01	3.1551e+00	6.4920e-01
3.7519e-01	3.1573e+00	6.0574e-01
3.8067e-01	3.1572e+00	5.6201e-01
3.8630e-01	3.1548e+00	5.1815e-01
3.9211e-01	3.1499e+00	4.7435e-01
3.9809e-01	3.1425e+00	4.3081e-01
4.0426e-01	3.1325e+00	3.8773e-01
4.1062e-01	3.1199e+00	3.4534e-01
4.1719e-01	3.1046e+00	3.0391e-01
4.2397e-01	3.0867e+00	2.6368e-01
4.3097e-01	3.0662e+00	2.2496e-01
4.3821e-01	3.0431e+00	1.8804e-01
4.4570e-01	3.0175e+00	1.5327e-01
4.5345e-01	2.9895e+00	1.2097e-01
4.6147e-01	2.9594e+00	9.1543e-02
4.6978e-01	2.9274e+00	6.5378e-02
4.7839e-01	2.8938e+00	4.2915e-02
4.8733e-01	2.8591e+00	2.4623e-02
4.9660e-01	2.8240e+00	1.1012e-02
5.0624e-01	2.7895e+00	2.6250e-03
5.1625e-01	2.7577e+00	1.1950e-05
5.2668e-01	2.7317e+00	8.7875e-06
5.3753e-01	2.7090e+00	7.5416e-06
5.4884e-01	2.6887e+00	8.1209e-06
5.6063e-01	2.6702e+00	9.7880e-06
5.7294e-01	2.6532e+00	1.0990e-05
5.8581e-01	2.6374e+00	1.0336e-05
5.9926e-01	2.6228e+00	7.8387e-06
6.1335e-01	2.6091e+00	4.8000e-06
6.2812e-01	2.5962e+00	2.4772e-06
6.4361e-01	2.5841e+00	1.2155e-06
6.5989e-01	2.5727e+00	6.9543e-07
6.7701e-01	2.5620e+00	5.1621e-07
6.9505e-01	2.5518e+00	4.5188e-07
7.1407e-01	2.5422e+00	4.1944e-07
7.3417e-01	2.5331e+00	3.9628e-07
7.5543e-01	2.5245e+00	3.7692e-07
7.7795e-01	2.5163e+00	3.5972e-07
8.0186e-01	2.5086e+00	3.4389e-07
8.2729e-01	2.5012e+00	3.2897e-07
8.5438e-01	2.4942e+00	3.1471e-07
8.8331e-01	2.4876e+00	3.0093e-07
9.1426e-01	2.4813e+00	2.8753e-07
9.4747e-01	2.4753e+00	2.7446e-07
9.8317e-01	2.4696e+00	2.6169e-07
1.0217e+00	2.4642e+00	2.4920e-07
1.0633e+00	2.4591e+00	2.3697e-07
1.1085e+00	2.4543e+00	2.2500e-07
1.1577e+00	2.4497e+00	2.1328e-07
1.2114e+00	2.4454e+00	2.0181e-07
1.2704e+00	2.4413e+00	1.9058e-07
1.3355e+00	2.4375e+00	1.7959e-07
1.4075e+00	2.4339e+00	1.6884e-07
1.4878e+00	2.4305e+00	1.5831e-07
1.5777e+00	2.4273e+00	1.4800e-07
1.6793e+00	2.4243e+00	1.3790e-07
1.7948e+00	2.4216e+00	1.2800e-07
1.9274e+00	2.4190e+00	1.1830e-07
2.0811e+00	2.4167e+00	1.0879e-07
2.2616e+00	2.4145e+00	9.9442e-08
2.4762e+00	2.4125e+00	9.0260e-08
2.7359e+00	2.4108e+00	8.1226e-08
3.0564e+00	2.4092e+00	7.2330e-08
3.4619e+00	2.4077e+00	6.3558e-08
3.9916e+00	2.4065e+00	5.4896e-08
4.7126e+00	2.4054e+00	4.6331e-08
5.7515e+00	2.4046e+00	3.7847e-08
7.3780e+00	2.4039e+00	2.9432e-08
1.0287e+01	2.4033e+00	2.1070e-08
1.6984e+01	2.4030e+00	1.2746e-08
