Material: main / Pt / Tselin
Optical constants. A. Tselin, M. Pogodaeva, S. Levchenko, A. Kalmykov, K. Garbuzov, A. Smirnov, V. Drachev. Exploring the dielectric function of platinum. Phys. Rev. B 110, 195130 (2024) (Numerical data kindly provided by Andrey Tselin)
Comments: 80 nm Pt film on quartz, deposited by EB-PVD, characterized by spectroscopic ellipsometry and DFT calculations.
Conditions: {"substrate": "SiO2", "film_thickness": "80e-9"}
wavelength (um)	n	k
0.190000	1.284	1.380
0.198279	1.242	1.461
0.206558	1.209	1.550
0.214837	1.187	1.643
0.223117	1.173	1.737
0.231396	1.166	1.832
0.239675	1.166	1.926
0.247954	1.171	2.017
0.256233	1.180	2.107
0.264512	1.192	2.195
0.272791	1.207	2.280
0.281071	1.224	2.363
0.289350	1.243	2.443
0.297629	1.262	2.522
0.305908	1.283	2.598
0.314187	1.304	2.673
0.322466	1.326	2.746
0.330745	1.347	2.818
0.339025	1.369	2.889
0.347304	1.391	2.958
0.355583	1.413	3.026
0.363862	1.435	3.093
0.372141	1.457	3.160
0.380420	1.479	3.226
0.388699	1.500	3.291
0.396978	1.521	3.356
0.405258	1.543	3.420
0.413537	1.564	3.484
0.421816	1.585	3.547
0.430095	1.606	3.611
0.438374	1.628	3.674
0.446653	1.649	3.736
0.454932	1.670	3.799
0.463212	1.692	3.861
0.471491	1.713	3.923
0.479770	1.735	3.985
0.488049	1.757	4.046
0.496328	1.779	4.108
0.504607	1.801	4.169
0.512886	1.824	4.230
0.521166	1.846	4.290
0.529445	1.869	4.351
0.537724	1.893	4.411
0.546003	1.916	4.471
0.554282	1.940	4.530
0.562561	1.964	4.589
0.570840	1.988	4.648
0.579120	2.013	4.707
0.587399	2.037	4.765
0.595678	2.062	4.823
0.603957	2.088	4.880
0.612236	2.113	4.938
0.620515	2.139	4.994
0.628794	2.164	5.051
0.637074	2.190	5.107
0.645353	2.217	5.162
0.653632	2.243	5.217
0.661911	2.269	5.272
0.670190	2.296	5.326
0.678469	2.323	5.380
0.686748	2.350	5.434
0.695028	2.377	5.487
0.703307	2.404	5.540
0.711586	2.431	5.592
0.719865	2.458	5.644
0.728144	2.486	5.696
0.736423	2.513	5.747
0.744702	2.541	5.798
0.752981	2.568	5.848
0.761261	2.596	5.898
0.769540	2.623	5.948
0.777819	2.651	5.998
0.786098	2.679	6.047
0.794377	2.707	6.095
0.802656	2.734	6.144
0.810935	2.762	6.192
0.819215	2.790	6.239
0.827494	2.818	6.287
0.835773	2.846	6.334
0.844052	2.874	6.380
0.852331	2.902	6.427
0.860610	2.930	6.473
0.868889	2.959	6.519
0.877169	2.987	6.564
0.885448	3.015	6.609
0.893727	3.044	6.654
0.902006	3.072	6.698
0.910285	3.100	6.742
0.918564	3.129	6.786
0.926843	3.158	6.830
0.935123	3.186	6.873
0.943402	3.215	6.916
0.951681	3.244	6.958
0.959960	3.273	7.000
0.968239	3.302	7.042
0.976518	3.331	7.083
0.984797	3.360	7.124
0.993077	3.389	7.165
1.001356	3.419	7.205
1.009635	3.448	7.245
1.017914	3.478	7.284
1.026193	3.507	7.323
1.034472	3.537	7.362
1.042751	3.566	7.400
1.051031	3.596	7.438
1.059310	3.626	7.475
1.067589	3.656	7.512
1.075868	3.686	7.548
1.084147	3.715	7.584
1.092426	3.745	7.619
1.100705	3.775	7.654
1.108984	3.805	7.689
1.117264	3.835	7.722
1.125543	3.865	7.756
1.133822	3.895	7.788
1.142101	3.924	7.821
1.150380	3.954	7.852
1.158659	3.984	7.883
1.166938	4.013	7.914
1.175218	4.043	7.944
1.183497	4.072	7.973
1.191776	4.101	8.002
1.200055	4.130	8.031
1.208334	4.159	8.058
1.216613	4.188	8.085
1.224892	4.216	8.112
1.233172	4.244	8.138
1.241451	4.272	8.163
1.249730	4.300	8.188
1.258009	4.327	8.212
1.266288	4.354	8.236
1.274567	4.381	8.259
1.282846	4.408	8.282
1.291126	4.434	8.304
1.299405	4.460	8.325
1.307684	4.485	8.346
1.315963	4.510	8.367
1.324242	4.535	8.387
1.332521	4.559	8.406
1.340800	4.583	8.425
1.349080	4.606	8.443
1.357359	4.629	8.461
1.365638	4.651	8.478
1.373917	4.673	8.495
1.382196	4.694	8.512
1.390475	4.715	8.528
1.398754	4.735	8.544
1.407034	4.755	8.559
1.415313	4.774	8.574
1.423592	4.792	8.588
1.431871	4.810	8.602
1.440150	4.827	8.616
1.448429	4.844	8.630
1.456708	4.860	8.643
1.464987	4.876	8.656
1.473267	4.890	8.668
1.481546	4.904	8.680
1.489825	4.918	8.692
1.498104	4.931	8.704
1.506383	4.943	8.716
1.514662	4.954	8.727
1.522941	4.965	8.739
1.531221	4.975	8.750
1.539500	4.985	8.761
1.547779	4.994	8.772
1.556058	5.002	8.783
1.564337	5.009	8.794
1.572616	5.016	8.804
1.580895	5.022	8.815
1.589175	5.027	8.826
1.597454	5.032	8.836
1.605733	5.036	8.847
1.614012	5.039	8.858
1.622291	5.042	8.868
1.630570	5.044	8.879
1.638849	5.045	8.890
1.647129	5.046	8.901
1.655408	5.046	8.912
1.663687	5.046	8.923
1.671966	5.044	8.935
1.680245	5.043	8.946
1.688524	5.040	8.958
1.696803	5.037	8.970
1.705083	5.033	8.982
1.713362	5.029	8.995
1.721641	5.024	9.007
1.729920	5.019	9.020
1.738199	5.013	9.033
1.746478	5.006	9.047
1.754757	4.999	9.060
1.763037	4.992	9.074
1.771316	4.983	9.088
1.779595	4.975	9.103
1.787874	4.966	9.118
1.796153	4.956	9.133
1.804432	4.946	9.149
1.812711	4.935	9.165
1.820990	4.924	9.181
1.829270	4.913	9.198
1.837549	4.901	9.215
1.845828	4.888	9.232
1.854107	4.876	9.250
1.862386	4.862	9.268
1.870665	4.849	9.287
1.878944	4.835	9.306
1.887224	4.821	9.326
1.895503	4.806	9.346
1.903782	4.791	9.366
1.912061	4.776	9.387
1.920340	4.760	9.408
1.928619	4.744	9.430
1.936898	4.728	9.452
1.945178	4.711	9.474
1.953457	4.695	9.497
1.961736	4.678	9.521
1.970015	4.660	9.544
1.978294	4.643	9.569
1.986573	4.625	9.594
1.994852	4.607	9.619
2.003132	4.589	9.645
2.011411	4.571	9.671
2.019690	4.553	9.697
2.027969	4.534	9.724
2.036248	4.515	9.752
2.044527	4.497	9.780
2.052806	4.478	9.808
2.061086	4.459	9.837
2.069365	4.439	9.866
2.077644	4.420	9.896
2.085923	4.401	9.926
2.094202	4.381	9.957
2.102481	4.362	9.988
2.110760	4.342	10.019
2.119040	4.323	10.051
2.127319	4.303	10.083
2.135598	4.283	10.116
2.143877	4.264	10.149
2.152156	4.244	10.183
2.160435	4.224	10.217
2.168714	4.205	10.251
2.176994	4.185	10.286
2.185273	4.165	10.321
2.193552	4.146	10.356
2.201831	4.126	10.392
2.210110	4.106	10.429
2.218389	4.087	10.465
2.226668	4.067	10.502
2.234947	4.048	10.540
2.243227	4.029	10.578
2.251506	4.010	10.616
2.259785	3.990	10.654
2.268064	3.971	10.693
2.276343	3.952	10.732
2.284622	3.933	10.772
2.292901	3.915	10.811
2.301181	3.896	10.852
2.309460	3.877	10.892
2.317739	3.859	10.933
2.326018	3.840	10.974
2.334297	3.822	11.015
2.342576	3.804	11.057
2.350855	3.786	11.099
2.359135	3.768	11.141
2.367414	3.750	11.184
2.375693	3.733	11.226
2.383972	3.715	11.269
2.392251	3.698	11.313
2.400530	3.681	11.356
2.408809	3.664	11.400
2.417089	3.647	11.444
2.425368	3.630	11.488
2.433647	3.614	11.533
2.441926	3.597	11.578
2.450205	3.581	11.623
2.458484	3.565	11.668
2.466763	3.549	11.713
2.475043	3.533	11.759
2.483322	3.517	11.805
2.491601	3.502	11.851
2.499880	3.487	11.897
2.508159	3.471	11.943
2.516438	3.456	11.990
2.524717	3.442	12.037
2.532996	3.427	12.084
2.541276	3.412	12.131
2.549555	3.398	12.178
2.557834	3.384	12.225
2.566113	3.370	12.273
2.574392	3.356	12.321
2.582671	3.342	12.369
2.590950	3.329	12.417
2.599230	3.315	12.465
2.607509	3.302	12.513
2.615788	3.289	12.562
2.624067	3.276	12.610
2.632346	3.264	12.659
2.640625	3.251	12.708
2.648904	3.239	12.757
2.657184	3.227	12.806
2.665463	3.214	12.855
2.673742	3.203	12.905
2.682021	3.191	12.954
2.690300	3.179	13.004
2.698579	3.168	13.053
2.706858	3.157	13.103
2.715138	3.146	13.153
2.723417	3.135	13.203
2.731696	3.124	13.253
2.739975	3.113	13.303
2.748254	3.103	13.353
2.756533	3.092	13.403
2.764812	3.082	13.454
2.773092	3.072	13.504
2.781371	3.062	13.555
2.789650	3.053	13.605
2.797929	3.043	13.656
2.806208	3.034	13.707
2.814487	3.024	13.758
2.822766	3.015	13.808
2.831046	3.006	13.859
2.839325	2.997	13.910
2.847604	2.989	13.961
2.855883	2.980	14.012
2.864162	2.972	14.064
2.872441	2.964	14.115
2.880720	2.955	14.166
2.889000	2.947	14.217
2.897279	2.940	14.269
2.905558	2.932	14.320
2.913837	2.924	14.371
2.922116	2.917	14.423
2.930395	2.909	14.474
2.938674	2.902	14.526
2.946953	2.895	14.578
2.955233	2.888	14.629
2.963512	2.881	14.681
2.971791	2.875	14.732
2.980070	2.868	14.784
2.988349	2.862	14.836
2.996628	2.855	14.888
3.004907	2.849	14.940
3.013187	2.843	14.991
3.021466	2.837	15.043
3.029745	2.831	15.095
3.038024	2.826	15.147
3.046303	2.820	15.199
3.054582	2.814	15.251
3.062861	2.809	15.303
3.071141	2.804	15.355
3.079420	2.799	15.407
3.087699	2.794	15.459
3.095978	2.789	15.511
3.104257	2.784	15.563
3.112536	2.779	15.615
3.120815	2.775	15.667
3.129095	2.770	15.719
3.137374	2.766	15.771
3.145653	2.761	15.823
3.153932	2.757	15.875
3.162211	2.753	15.927
3.170490	2.749	15.980
3.178769	2.745	16.032
3.187049	2.741	16.084
3.195328	2.738	16.136
3.203607	2.734	16.188
3.211886	2.731	16.240
3.220165	2.727	16.292
3.228444	2.724	16.345
3.236723	2.721	16.397
3.245002	2.718	16.449
3.253282	2.715	16.501
3.261561	2.712	16.553
3.269840	2.709	16.605
3.278119	2.706	16.658
3.286398	2.704	16.710
3.294677	2.701	16.762
3.302956	2.698	16.814
3.311236	2.696	16.866
3.319515	2.694	16.918
3.327794	2.692	16.970
3.336073	2.689	17.023
3.344352	2.687	17.075
3.352631	2.685	17.127
3.360910	2.683	17.179
3.369190	2.682	17.231
3.377469	2.680	17.283
3.385748	2.678	17.335
3.394027	2.677	17.388
3.402306	2.675	17.440
3.410585	2.674	17.492
3.418864	2.673	17.544
3.427144	2.671	17.596
3.435423	2.670	17.648
3.443702	2.669	17.700
3.451981	2.668	17.752
3.460260	2.667	17.804
3.468539	2.666	17.856
3.476818	2.665	17.908
3.485098	2.665	17.960
3.493377	2.664	18.012
