Material: misc / soda-lime / Kamptner-tin-side
Optical constants. A. Kamptner, M. C. Scharber, M. Schiek. Accurate determination of the uniaxial complex refractive index and the optical band gap of polymer thin films to correlate their absorption strength and onset of absorption. Chem. Phys. Chem. e202400233 (2024) (See Supporting Information. Numerical data kindly provided by Manuela Schiek)
Comments: Glass objective slide (Marienfeld, 7.5 cm x 2.5 cm, 1 mm thick). "Tin" side of the float glass. Float glass is produced by pouring molten glass onto liquid tin, so that the glass floats on top of the liquid tin while it cools down forming very flat sheets. Some tin diffuses into the glass surface facing the tin bath during the cooling procedure. This side of the glass, the "tin" side, receives different surface optical properties compared to the other side, the "air" side."
wavelength (um)	n	k
0.19146	1.60019	5.83E-02
0.19465	1.61817	9.37E-02
0.19784	1.62201	1.00E-01
0.20104	1.60819	1.08E-01
0.20423	1.59588	1.32E-01
0.20742	1.60046	1.61E-01
0.21062	1.62065	1.81E-01
0.21381	1.64555	1.84E-01
0.21701	1.66431	1.76E-01
0.22020	1.67520	1.65E-01
0.22340	1.68062	1.56E-01
0.22659	1.68669	1.51E-01
0.22979	1.69639	1.46E-01
0.23298	1.70910	1.37E-01
0.23618	1.72212	1.21E-01
0.23938	1.73044	9.88E-02
0.24257	1.73144	7.40E-02
0.24577	1.72512	5.00E-02
0.24897	1.71264	2.97E-02
0.25216	1.69670	1.55E-02
0.25536	1.68073	6.84E-03
0.25856	1.66626	2.31E-03
0.26176	1.65398	4.77E-04
0.26496	1.64403	8.60E-05
0.26815	1.63601	7.30E-05
0.27135	1.62920	6.40E-05
0.27455	1.62324	5.60E-05
0.27775	1.61793	4.80E-05
0.28095	1.61314	4.10E-05
0.28415	1.60878	3.50E-05
0.28735	1.60479	2.90E-05
0.29055	1.60111	2.50E-05
0.29375	1.59770	2.00E-05
0.29695	1.59453	1.70E-05
0.30015	1.59157	1.40E-05
0.30335	1.58880	1.10E-05
0.30655	1.58620	9.00E-06
0.30975	1.58376	7.00E-06
0.31295	1.58145	6.00E-06
0.31615	1.57927	5.00E-06
0.31935	1.57720	4.00E-06
0.32255	1.57524	3.00E-06
0.32576	1.57338	2.00E-06
0.32896	1.57161	2.00E-06
0.33216	1.56992	2.00E-06
0.33536	1.56831	1.00E-06
0.33856	1.56678	1.00E-06
0.34176	1.56531	1.00E-06
0.34497	1.56391	1.00E-06
0.34817	1.56256	0
0.35137	1.56127	0
0.35457	1.56003	0
0.35777	1.55884	0
0.36098	1.55770	0
0.36418	1.55660	0
0.36738	1.55554	0
0.37058	1.55452	0
0.37379	1.55354	0
0.37699	1.55260	0
0.38019	1.55168	0
0.38339	1.55080	0
0.38660	1.54995	0
0.38980	1.54913	0
0.39300	1.54833	0
0.39621	1.54756	0
0.39941	1.54682	0
0.40261	1.54609	0
0.40581	1.54540	0
0.40902	1.54472	0
0.41222	1.54406	0
0.41542	1.54342	0
0.41863	1.54280	0
0.42183	1.54220	0
0.42503	1.54162	0
0.42823	1.54105	0
0.43144	1.54050	0
0.43464	1.53997	0
0.43784	1.53945	0
0.44105	1.53894	0
0.44425	1.53845	0
0.44745	1.53797	0
0.45065	1.53750	0
0.45386	1.53705	0
0.45706	1.53661	0
0.46026	1.53618	0
0.46346	1.53575	0
0.46667	1.53534	0
0.46987	1.53495	0
0.47307	1.53455	0
0.47627	1.53417	0
0.47947	1.53380	0
0.48267	1.53344	0
0.48588	1.53309	0
0.48908	1.53274	0
0.49228	1.53240	0
0.49548	1.53207	0
0.49868	1.53175	0
0.50188	1.53144	0
0.50508	1.53113	0
0.50828	1.53083	0
0.51149	1.53053	0
0.51469	1.53024	0
0.51789	1.52996	0
0.52109	1.52969	0
0.52429	1.52942	0
0.52749	1.52915	0
0.53069	1.52889	0
0.53389	1.52864	0
0.53709	1.52839	0
0.54028	1.52815	0
0.54348	1.52791	0
0.54668	1.52768	0
0.54988	1.52745	0
0.55308	1.52723	0
0.55628	1.52701	0
0.55948	1.52679	0
0.56267	1.52658	0
0.56587	1.52637	0
0.56907	1.52617	0
0.57227	1.52597	0
0.57546	1.52578	0
0.57866	1.52558	0
0.58186	1.52540	0
0.58505	1.52521	0
0.58825	1.52503	0
0.59144	1.52485	0
0.59464	1.52468	0
0.59783	1.52451	0
0.60103	1.52434	0
0.60422	1.52417	0
0.60742	1.52401	0
0.61061	1.52385	0
0.61381	1.52369	0
0.61700	1.52354	0
0.62019	1.52339	0
0.62339	1.52324	0
0.62658	1.52309	0
0.62977	1.52295	0
0.63296	1.52280	0
0.63616	1.52266	0
0.63935	1.52253	0
0.64254	1.52239	0
0.64573	1.52226	0
0.64892	1.52213	0
0.65211	1.52200	0
0.65530	1.52188	0
0.65849	1.52175	0
0.66168	1.52163	0
0.66487	1.52151	0
0.66805	1.52139	0
0.67124	1.52127	0
0.67443	1.52116	0
0.67762	1.52105	0
0.68080	1.52093	0
0.68399	1.52083	0
0.68718	1.52072	0
0.69036	1.52061	0
0.69355	1.52051	0
0.69673	1.52040	0
0.69992	1.52030	0
0.70310	1.52020	0
0.70628	1.52010	0
0.70947	1.52001	0
0.71265	1.51991	0
0.71583	1.51982	0
0.71902	1.51972	0
0.72220	1.51963	0
0.72538	1.51954	0
0.72856	1.51945	0
0.73174	1.51937	0
0.73492	1.51928	0
0.73810	1.51919	0
0.74128	1.51911	0
0.74446	1.51903	0
0.74763	1.51895	0
0.75081	1.51886	0
0.75399	1.51879	0
0.75716	1.51871	0
0.76034	1.51863	0
0.76352	1.51855	0
0.76669	1.51848	0
0.76987	1.51840	0
0.77304	1.51833	0
0.77621	1.51826	0
0.77939	1.51819	0
0.78256	1.51812	0
0.78573	1.51805	0
0.78890	1.51798	0
0.79207	1.51791	0
0.79524	1.51784	0
0.79841	1.51778	0
0.80158	1.51771	0
0.80475	1.51765	0
0.80792	1.51758	0
0.81109	1.51752	0
0.81425	1.51746	0
0.81742	1.51740	0
0.82058	1.51734	0
0.82375	1.51728	0
0.82691	1.51722	0
0.83008	1.51716	0
0.83324	1.51710	0
0.83641	1.51705	0
0.83957	1.51699	0
0.84273	1.51693	0
0.84589	1.51688	0
0.84905	1.51683	0
0.85221	1.51677	0
0.85537	1.51672	0
0.85853	1.51667	0
0.86169	1.51662	0
0.86484	1.51656	0
0.86800	1.51652	0
0.87116	1.51647	0
0.87431	1.51642	0
0.87747	1.51637	0
0.88062	1.51632	0
0.88377	1.51627	0
0.88693	1.51622	0
0.89008	1.51618	0
0.89323	1.51613	0
0.89638	1.51609	0
0.89953	1.51604	0
0.90268	1.51600	0
0.90583	1.51595	0
0.90898	1.51591	0
0.91212	1.51587	0
0.91527	1.51582	0
0.91842	1.51578	0
0.92156	1.51574	0
0.92470	1.51570	0
0.92785	1.51566	0
0.93099	1.51562	0
0.93413	1.51558	0
0.93728	1.51554	0
0.94042	1.51550	0
0.94356	1.51546	0
0.94669	1.51542	0
0.94983	1.51539	0
0.95297	1.51535	0
0.95611	1.51531	0
0.95924	1.51527	0
0.96238	1.51524	0
0.96551	1.51520	0
0.96865	1.51517	0
0.97178	1.51513	0
0.97491	1.51510	0
0.97804	1.51506	0
0.98117	1.51503	0
0.98430	1.51500	0
0.98743	1.51496	0
0.99056	1.51493	0
0.99369	1.51490	0
0.99681	1.51486	0
0.99994	1.51483	0
1.01681	1.51466	0
1.02367	1.51460	0
1.03052	1.51454	0
1.03738	1.51447	0
1.04423	1.51441	0
1.05109	1.51435	0
1.05795	1.51429	0
1.06480	1.51423	0
1.07166	1.51418	0
1.07851	1.51412	0
1.08537	1.51407	0
1.09223	1.51401	0
1.09908	1.51396	0
1.10594	1.51391	0
1.11280	1.51386	0
1.11965	1.51381	0
1.12651	1.51376	0
1.13337	1.51371	0
1.14022	1.51367	0
1.14708	1.51362	0
1.15394	1.51357	0
1.16080	1.51353	0
1.16766	1.51349	0
1.17452	1.51344	0
1.18138	1.51340	0
1.18824	1.51336	0
1.19510	1.51332	0
1.20196	1.51328	0
1.20883	1.51324	0
1.21569	1.51320	0
1.22255	1.51316	0
1.22942	1.51313	0
1.23628	1.51309	0
1.24315	1.51305	0
1.25001	1.51302	0
1.25688	1.51298	0
1.26375	1.51295	0
1.27062	1.51292	0
1.27749	1.51288	0
1.28436	1.51285	0
1.29123	1.51282	0
1.29810	1.51279	0
1.30497	1.51276	0
1.31185	1.51273	0
1.31872	1.51269	0
1.32560	1.51267	0
1.33248	1.51264	0
1.33935	1.51261	0
1.34623	1.51258	0
1.35311	1.51255	0
1.36000	1.51252	0
1.36688	1.51250	0
1.37376	1.51247	0
1.38065	1.51245	0
1.38753	1.51242	0
1.39442	1.51239	0
1.40131	1.51237	0
1.40820	1.51234	0
1.41509	1.51232	0
1.42199	1.51230	0
1.42888	1.51227	0
1.43578	1.51225	0
1.44267	1.51223	0
1.44957	1.51220	0
1.45647	1.51218	0
1.46337	1.51216	0
1.47028	1.51214	0
1.47718	1.51212	0
1.48409	1.51210	0
1.49100	1.51208	0
1.49791	1.51205	0
1.50482	1.51204	0
1.51173	1.51202	0
1.51865	1.51200	0
1.52556	1.51198	0
1.53248	1.51196	0
1.53940	1.51194	0
1.54633	1.51192	0
1.55325	1.51190	0
1.56018	1.51188	0
1.56711	1.51187	0
1.57404	1.51185	0
1.58097	1.51183	0
1.58790	1.51181	0
1.59484	1.51180	0
1.60178	1.51178	0
1.60872	1.51176	0
1.61566	1.51175	0
1.62260	1.51173	0
1.62955	1.51171	0
1.63650	1.51170	0
1.64345	1.51168	0
1.65040	1.51167	0
1.65736	1.51165	0
1.66432	1.51164	0
1.67128	1.51162	0
1.67824	1.51161	0
1.68520	1.51160	0
