Material: main / Bi2Se3 / Ermolaev
Optical constants. G. A. Ermolaev, I. S. Vyslanko, A. P. Tselin, M. A. El-Sayed, M. K. Tatmyshevskiy, A. S. Slavich, D. I. Yakubovsky, M. S. Mironov, A. B. Mazitov, A. Eghbali, D. A. Panova, R. I. Romanov, A. M. Markeev, I. A. Kruglov, S. M. Novikov, A. A. Vyshnevyy, A. V. Arsenin, V. S. Volkov. Broadband Optical Properties of Bi2Se3. Nanomater., 13, 1460 (2023) (Numerical data kindly provided by Georgy Ermolaev)
Comments: Bi2Se3 CVD film.
Conditions: {"substrate": "Si/SiO2"}
wavelength (um)	n	k
0.290	1.35150	3.94644
0.293	1.39056	3.96899
0.296	1.43010	3.99088
0.299	1.47008	4.01209
0.302	1.51049	4.03258
0.305	1.55128	4.05235
0.308	1.59244	4.07138
0.311	1.63392	4.08965
0.314	1.67569	4.10715
0.317	1.71773	4.12386
0.320	1.75999	4.13979
0.323	1.80244	4.15492
0.326	1.84504	4.16924
0.329	1.88776	4.18277
0.332	1.93056	4.19549
0.335	1.97341	4.20742
0.338	2.01626	4.21855
0.341	2.05908	4.22890
0.344	2.10185	4.23849
0.347	2.14452	4.24732
0.350	2.18707	4.25540
0.353	2.22947	4.26277
0.356	2.27169	4.26944
0.359	2.31369	4.27543
0.362	2.35547	4.28076
0.365	2.39699	4.28547
0.368	2.43824	4.28958
0.371	2.47921	4.29311
0.374	2.51987	4.29610
0.377	2.56022	4.29857
0.380	2.60025	4.30055
0.383	2.63995	4.30208
0.386	2.67932	4.30318
0.389	2.71836	4.30388
0.392	2.75707	4.30421
0.395	2.79546	4.30419
0.398	2.83352	4.30386
0.401	2.87128	4.30323
0.404	2.90874	4.30233
0.407	2.94591	4.30118
0.410	2.98281	4.29980
0.413	3.01945	4.29821
0.416	3.05585	4.29641
0.419	3.09203	4.29444
0.422	3.12800	4.29229
0.425	3.16380	4.28998
0.428	3.19942	4.28750
0.431	3.23490	4.28488
0.434	3.27026	4.28210
0.437	3.30550	4.27917
0.440	3.34067	4.27609
0.443	3.37576	4.27285
0.446	3.41080	4.26945
0.449	3.44580	4.26587
0.452	3.48079	4.26210
0.455	3.51577	4.25815
0.458	3.55076	4.25398
0.461	3.58576	4.24959
0.464	3.62079	4.24497
0.467	3.65586	4.24009
0.470	3.69097	4.23493
0.473	3.72612	4.22949
0.476	3.76132	4.22374
0.479	3.79656	4.21766
0.482	3.83185	4.21123
0.485	3.86718	4.20443
0.488	3.90254	4.19725
0.491	3.93794	4.18966
0.494	3.97335	4.18165
0.497	4.00876	4.17321
0.500	4.04417	4.16430
0.503	4.07956	4.15492
0.506	4.11492	4.14506
0.509	4.15022	4.13470
0.512	4.18545	4.12383
0.515	4.22058	4.11243
0.518	4.25561	4.10050
0.521	4.29050	4.08804
0.524	4.32523	4.07503
0.527	4.35978	4.06147
0.530	4.39414	4.04736
0.533	4.42826	4.03270
0.536	4.46214	4.01749
0.539	4.49575	4.00173
0.542	4.52905	3.98542
0.545	4.56204	3.96858
0.548	4.59469	3.95120
0.551	4.62697	3.93331
0.554	4.65886	3.91490
0.557	4.69035	3.89599
0.560	4.72141	3.87659
0.563	4.75203	3.85673
0.566	4.78217	3.83640
0.569	4.81184	3.81564
0.572	4.84101	3.79445
0.575	4.86967	3.77286
0.578	4.89780	3.75088
0.581	4.92539	3.72853
0.584	4.95243	3.70584
0.587	4.97891	3.68282
0.590	5.00483	3.65950
0.593	5.03017	3.63589
0.596	5.05492	3.61202
0.599	5.07909	3.58791
0.602	5.10267	3.56358
0.605	5.12566	3.53905
0.608	5.14805	3.51435
0.611	5.16985	3.48948
0.614	5.19106	3.46448
0.617	5.21167	3.43937
0.620	5.23169	3.41415
0.623	5.25113	3.38886
0.626	5.26998	3.36351
0.629	5.28826	3.33811
0.632	5.30597	3.31270
0.635	5.32312	3.28727
0.638	5.33971	3.26186
0.641	5.35575	3.23647
0.644	5.37125	3.21112
0.647	5.38621	3.18582
0.650	5.40066	3.16059
0.653	5.41459	3.13544
0.656	5.42802	3.11039
0.659	5.44096	3.08543
0.662	5.45341	3.06060
0.665	5.46539	3.03589
0.668	5.47691	3.01131
0.671	5.48798	2.98688
0.674	5.49861	2.96260
0.677	5.50881	2.93848
0.680	5.51859	2.91453
0.683	5.52797	2.89076
0.686	5.53695	2.86716
0.689	5.54554	2.84375
0.692	5.55376	2.82053
0.695	5.56161	2.79751
0.698	5.56912	2.77469
0.701	5.57628	2.75207
0.704	5.58310	2.72966
0.707	5.58961	2.70746
0.710	5.59580	2.68548
0.713	5.60168	2.66371
0.716	5.60728	2.64215
0.719	5.61259	2.62082
0.722	5.61763	2.59970
0.725	5.62240	2.57881
0.728	5.62692	2.55813
0.731	5.63118	2.53768
0.734	5.63521	2.51745
0.737	5.63901	2.49744
0.740	5.64258	2.47766
0.743	5.64594	2.45809
0.746	5.64908	2.43875
0.749	5.65203	2.41963
0.752	5.65479	2.40072
0.755	5.65736	2.38204
0.758	5.65974	2.36357
0.761	5.66196	2.34531
0.764	5.66401	2.32727
0.767	5.66589	2.30944
0.770	5.66763	2.29183
0.773	5.66921	2.27442
0.776	5.67065	2.25722
0.779	5.67195	2.24022
0.782	5.67312	2.22343
0.785	5.67417	2.20684
0.788	5.67509	2.19045
0.791	5.67589	2.17425
0.794	5.67658	2.15825
0.797	5.67716	2.14244
0.800	5.67763	2.12683
0.803	5.67801	2.11140
0.806	5.67829	2.09616
0.809	5.67847	2.08110
0.812	5.67857	2.06623
0.815	5.67858	2.05153
0.818	5.67851	2.03701
0.821	5.67837	2.02266
0.824	5.67814	2.00849
0.827	5.67785	1.99449
0.830	5.67749	1.98066
0.833	5.67706	1.96699
0.836	5.67656	1.95348
0.839	5.67601	1.94014
0.842	5.67540	1.92695
0.845	5.67473	1.91393
0.848	5.67401	1.90105
0.851	5.67324	1.88833
0.854	5.67242	1.87576
0.857	5.67156	1.86334
0.860	5.67065	1.85106
0.863	5.66970	1.83893
0.866	5.66871	1.82694
0.869	5.66768	1.81508
0.872	5.66661	1.80337
0.875	5.66551	1.79179
0.878	5.66438	1.78034
0.881	5.66321	1.76903
0.884	5.66201	1.75785
0.887	5.66079	1.74679
0.890	5.65954	1.73586
0.893	5.65826	1.72505
0.896	5.65696	1.71437
0.899	5.65563	1.70380
0.902	5.65429	1.69336
0.905	5.65292	1.68303
0.908	5.65153	1.67281
0.911	5.65013	1.66271
0.914	5.64871	1.65272
0.917	5.64727	1.64284
0.920	5.64581	1.63307
0.923	5.64434	1.62341
0.926	5.64286	1.61385
0.929	5.64136	1.60439
0.932	5.63986	1.59504
0.935	5.63834	1.58579
0.938	5.63681	1.57663
0.941	5.63527	1.56757
0.944	5.63372	1.55861
0.947	5.63217	1.54975
0.950	5.63060	1.54097
0.953	5.62903	1.53229
0.956	5.62746	1.52370
0.959	5.62588	1.51520
0.962	5.62429	1.50679
0.965	5.62270	1.49846
0.968	5.62110	1.49022
0.971	5.61950	1.48206
0.974	5.61790	1.47398
0.977	5.61629	1.46599
0.980	5.61468	1.45808
0.983	5.61307	1.45025
0.986	5.61146	1.44249
0.989	5.60985	1.43481
0.992	5.60824	1.42721
0.995	5.60662	1.41968
0.998	5.60501	1.41223
1.005	5.60124	1.39512
1.020	5.59320	1.35972
1.035	5.58522	1.32597
1.050	5.57732	1.29375
1.065	5.56952	1.26295
1.080	5.56185	1.23348
1.095	5.55430	1.20527
1.415	5.42886	0.79736
1.430	5.42446	0.78419
1.445	5.42017	0.77138
1.460	5.41598	0.75890
1.475	5.41189	0.74674
1.490	5.40789	0.73489
1.505	5.40399	0.72334
1.520	5.40018	0.71207
1.535	5.39646	0.70107
1.550	5.39282	0.69033
1.565	5.38926	0.67984
1.580	5.38578	0.66960
1.595	5.38237	0.65958
1.610	5.37904	0.64979
1.625	5.37579	0.64022
1.640	5.37260	0.63085
1.655	5.36947	0.62168
1.670	5.36641	0.61271
1.685	5.36342	0.60392
1.700	5.36048	0.59531
1.715	5.35761	0.58687
1.730	5.35478	0.57860
1.745	5.35202	0.57050
1.760	5.34931	0.56255
1.775	5.34664	0.55475
1.790	5.34403	0.54710
1.805	5.34147	0.53959
1.820	5.33895	0.53222
1.835	5.33648	0.52498
1.850	5.33405	0.51787
1.865	5.33166	0.51089
1.880	5.32932	0.50403
1.895	5.32701	0.49729
1.910	5.32474	0.49066
1.925	5.32251	0.48414
1.940	5.32032	0.47773
1.955	5.31816	0.47143
1.970	5.31603	0.46523
1.985	5.31394	0.45913
2.000	5.31188	0.45312
2.030	5.30785	0.44139
2.060	5.30394	0.43002
2.090	5.30013	0.41898
2.120	5.29644	0.40827
2.150	5.29283	0.39787
2.180	5.28932	0.38775
2.210	5.28590	0.37791
2.240	5.28256	0.36834
2.270	5.27930	0.35902
2.300	5.27611	0.34994
2.330	5.27299	0.34109
2.360	5.26994	0.33247
2.390	5.26694	0.32405
2.420	5.26401	0.31584
2.450	5.26113	0.30783
2.480	5.25831	0.30000
2.510	5.25553	0.29235
2.540	5.25281	0.28488
2.570	5.25012	0.27757
2.600	5.24749	0.27042
2.630	5.24489	0.26343
2.660	5.24233	0.25658
2.690	5.23981	0.24988
2.720	5.23732	0.24332
2.750	5.23487	0.23690
2.780	5.23245	0.23060
2.810	5.23006	0.22443
2.840	5.22769	0.21838
2.870	5.22536	0.21245
2.900	5.22305	0.20663
2.930	5.22077	0.20092
2.960	5.21851	0.19532
2.990	5.21628	0.18983
3.020	5.21407	0.18443
3.050	5.21187	0.17913
3.080	5.20970	0.17393
3.110	5.20755	0.16882
3.140	5.20542	0.16381
3.170	5.20330	0.15887
3.200	5.20121	0.15403
3.230	5.19912	0.14927
3.260	5.19706	0.14459
3.290	5.19501	0.13998
