Material: main / MgAl2O4 / Chernova
Optical constants. E. Chernova, C. Brooks, D. Chvostova, Z. Bryknar, A. Dejneka, M. Tyunina. Optical NIR-VIS-VUV constants of advanced substrates for thin-film devices. Opt. Mater. Express 7, 3844â€“3862 (2017) [Calculation script (Python)]
Comments: MgAl2O4, magnesium aluminate spinel (MAS)
wavelength (um)	n	k
1.4089e-01	2.2200e+00	5.1961e-01
1.4221e-01	2.2003e+00	4.8161e-01
1.4355e-01	2.1714e+00	4.6322e-01
1.4491e-01	2.1465e+00	4.7182e-01
1.4631e-01	2.1462e+00	5.0377e-01
1.4772e-01	2.1862e+00	5.3757e-01
1.4917e-01	2.2613e+00	5.4317e-01
1.5065e-01	2.3458e+00	5.0233e-01
1.5215e-01	2.4095e+00	4.1915e-01
1.5369e-01	2.4339e+00	3.1448e-01
1.5525e-01	2.4177e+00	2.1304e-01
1.5685e-01	2.3731e+00	1.3226e-01
1.5849e-01	2.3165e+00	7.7710e-02
1.6015e-01	2.2608e+00	4.5450e-02
1.6185e-01	2.2124e+00	2.7789e-02
1.6359e-01	2.1720e+00	1.8040e-02
1.6537e-01	2.1382e+00	1.2211e-02
1.6719e-01	2.1093e+00	8.3840e-03
1.6904e-01	2.0841e+00	5.7324e-03
1.7094e-01	2.0618e+00	3.8702e-03
1.7288e-01	2.0418e+00	2.5726e-03
1.7486e-01	2.0236e+00	1.6825e-03
1.7690e-01	2.0071e+00	1.0825e-03
1.7897e-01	1.9920e+00	6.8534e-04
1.8110e-01	1.9780e+00	4.2726e-04
1.8328e-01	1.9651e+00	2.6218e-04
1.8552e-01	1.9531e+00	1.5838e-04
1.8780e-01	1.9418e+00	9.4211e-05
1.9015e-01	1.9313e+00	5.5207e-05
1.9255e-01	1.9214e+00	3.1888e-05
1.9502e-01	1.9120e+00	1.8170e-05
1.9755e-01	1.9032e+00	1.0228e-05
2.0014e-01	1.8948e+00	5.6987e-06
2.0281e-01	1.8868e+00	3.1531e-06
2.0555e-01	1.8792e+00	1.7427e-06
2.0836e-01	1.8719e+00	9.6734e-07
2.1125e-01	1.8650e+00	5.4426e-07
2.1422e-01	1.8583e+00	3.1397e-07
2.1728e-01	1.8519e+00	1.8800e-07
2.2042e-01	1.8458e+00	1.1804e-07
2.2366e-01	1.8400e+00	7.8090e-08
2.2699e-01	1.8343e+00	5.4302e-08
2.3043e-01	1.8289e+00	3.9374e-08
2.3397e-01	1.8237e+00	2.9459e-08
2.3762e-01	1.8187e+00	2.2523e-08
2.4139e-01	1.8138e+00	1.7451e-08
2.4527e-01	1.8091e+00	1.3624e-08
2.4929e-01	1.8046e+00	1.0679e-08
2.5344e-01	1.8003e+00	8.3835e-09
2.5773e-01	1.7960e+00	6.5831e-09
2.6216e-01	1.7920e+00	5.1662e-09
2.6675e-01	1.7880e+00	4.0499e-09
2.7151e-01	1.7842e+00	3.1706e-09
2.7644e-01	1.7806e+00	2.4785e-09
2.8155e-01	1.7770e+00	1.9348e-09
2.8685e-01	1.7736e+00	1.5081e-09
2.9236e-01	1.7702e+00	1.1735e-09
2.9808e-01	1.7670e+00	9.1171e-10
3.0403e-01	1.7639e+00	7.0715e-10
3.1023e-01	1.7609e+00	5.4759e-10
3.1668e-01	1.7580e+00	4.2334e-10
3.2340e-01	1.7551e+00	3.2674e-10
3.3042e-01	1.7524e+00	2.5177e-10
3.3775e-01	1.7498e+00	1.9369e-10
3.4541e-01	1.7472e+00	1.4879e-10
3.5342e-01	1.7447e+00	1.1412e-10
3.6182e-01	1.7423e+00	8.7388e-11
3.7063e-01	1.7400e+00	6.6808e-11
3.7987e-01	1.7378e+00	5.0991e-11
3.8959e-01	1.7356e+00	3.8855e-11
3.9982e-01	1.7335e+00	2.9560e-11
4.1060e-01	1.7315e+00	2.2451e-11
4.2198e-01	1.7295e+00	1.7024e-11
4.3400e-01	1.7277e+00	1.2888e-11
4.4673e-01	1.7259e+00	9.7427e-12
4.6023e-01	1.7241e+00	7.3540e-12
4.7458e-01	1.7224e+00	5.5419e-12
4.8984e-01	1.7208e+00	4.1695e-12
5.0612e-01	1.7192e+00	3.1318e-12
5.2352e-01	1.7177e+00	2.3486e-12
5.4216e-01	1.7163e+00	1.7584e-12
5.6217e-01	1.7149e+00	1.3143e-12
5.8372e-01	1.7136e+00	9.8083e-13
6.0698e-01	1.7123e+00	7.3076e-13
6.3218e-01	1.7111e+00	5.4364e-13
6.5956e-01	1.7099e+00	4.0386e-13
6.8942e-01	1.7088e+00	2.9953e-13
7.2211e-01	1.7078e+00	2.2179e-13
7.5806e-01	1.7068e+00	1.6396e-13
7.9777e-01	1.7058e+00	1.2101e-13
8.4187e-01	1.7049e+00	8.9167e-14
8.9113e-01	1.7041e+00	6.5595e-14
9.4652e-01	1.7033e+00	4.8176e-14
1.0092e+00	1.7026e+00	3.5325e-14
1.0809e+00	1.7019e+00	2.5862e-14
1.1635e+00	1.7012e+00	1.8908e-14
1.2597e+00	1.7006e+00	1.3800e-14
1.3733e+00	1.7001e+00	1.0054e-14
1.5094e+00	1.6996e+00	7.3113e-15
1.6755e+00	1.6991e+00	5.3050e-15
