Material: doped crystals / Nb-SrTiO3 / Chernova
Optical constants. E. Chernova, C. Brooks, D. Chvostova, Z. Bryknar, A. Dejneka, M. Tyunina. Optical NIR-VIS-VUV constants of advanced substrates for thin-film devices. Opt. Mater. Express 7, 3844â€“3862 (2017) [Calculation script (Python)]
Comments: Single crystal Nd-doped (0.7 wt) strontium titanate
wavelength (um)	n	k
1.4089e-01	1.9090e+00	1.0669e+00
1.4221e-01	1.9222e+00	1.0314e+00
1.4355e-01	1.9310e+00	9.9570e-01
1.4491e-01	1.9354e+00	9.6024e-01
1.4631e-01	1.9356e+00	9.2551e-01
1.4772e-01	1.9316e+00	8.9198e-01
1.4917e-01	1.9235e+00	8.6013e-01
1.5065e-01	1.9116e+00	8.3038e-01
1.5215e-01	1.8961e+00	8.0319e-01
1.5369e-01	1.8773e+00	7.7895e-01
1.5525e-01	1.8555e+00	7.5804e-01
1.5685e-01	1.8311e+00	7.4076e-01
1.5849e-01	1.8045e+00	7.2739e-01
1.6015e-01	1.7762e+00	7.1815e-01
1.6185e-01	1.7465e+00	7.1317e-01
1.6359e-01	1.7159e+00	7.1255e-01
1.6537e-01	1.6847e+00	7.1629e-01
1.6719e-01	1.6529e+00	7.2446e-01
1.6904e-01	1.6207e+00	7.3711e-01
1.7094e-01	1.5877e+00	7.5468e-01
1.7288e-01	1.5535e+00	7.7815e-01
1.7486e-01	1.5181e+00	8.0973e-01
1.7690e-01	1.4827e+00	8.5282e-01
1.7897e-01	1.4517e+00	9.1138e-01
1.8110e-01	1.4339e+00	9.8683e-01
1.8328e-01	1.4398e+00	1.0740e+00
1.8552e-01	1.4761e+00	1.1599e+00
1.8780e-01	1.5398e+00	1.2286e+00
1.9015e-01	1.6185e+00	1.2679e+00
1.9255e-01	1.6948e+00	1.2755e+00
1.9502e-01	1.7529e+00	1.2587e+00
1.9755e-01	1.7842e+00	1.2322e+00
2.0014e-01	1.7894e+00	1.2129e+00
2.0281e-01	1.7786e+00	1.2133e+00
2.0555e-01	1.7663e+00	1.2380e+00
2.0836e-01	1.7652e+00	1.2822e+00
2.1125e-01	1.7819e+00	1.3366e+00
2.1422e-01	1.8167e+00	1.3919e+00
2.1728e-01	1.8661e+00	1.4423e+00
2.2042e-01	1.9261e+00	1.4850e+00
2.2366e-01	1.9933e+00	1.5195e+00
2.2699e-01	2.0657e+00	1.5462e+00
2.3043e-01	2.1419e+00	1.5655e+00
2.3397e-01	2.2214e+00	1.5780e+00
2.3762e-01	2.3038e+00	1.5844e+00
2.4139e-01	2.3899e+00	1.5852e+00
2.4527e-01	2.4824e+00	1.5798e+00
2.4929e-01	2.5840e+00	1.5635e+00
2.5344e-01	2.6928e+00	1.5274e+00
2.5773e-01	2.7977e+00	1.4645e+00
2.6216e-01	2.8826e+00	1.3783e+00
2.6675e-01	2.9378e+00	1.2847e+00
2.7151e-01	2.9676e+00	1.2033e+00
2.7644e-01	2.9903e+00	1.1447e+00
2.8155e-01	3.0262e+00	1.1034e+00
2.8685e-01	3.0857e+00	1.0608e+00
2.9236e-01	3.1640e+00	9.9561e-01
2.9808e-01	3.2424e+00	8.9528e-01
3.0403e-01	3.2978e+00	7.6177e-01
3.1023e-01	3.3137e+00	6.1426e-01
3.1668e-01	3.2973e+00	4.7641e-01
3.2340e-01	3.2637e+00	3.4321e-01
3.3042e-01	3.1943e+00	2.1356e-01
3.3775e-01	3.0919e+00	1.2231e-01
3.4541e-01	2.9926e+00	7.5947e-02
3.5342e-01	2.9147e+00	5.2727e-02
3.6182e-01	2.8521e+00	3.3834e-02
3.7063e-01	2.7942e+00	1.8082e-02
3.7987e-01	2.7411e+00	9.4689e-03
3.8959e-01	2.6956e+00	5.9639e-03
3.9982e-01	2.6570e+00	4.3037e-03
4.1060e-01	2.6234e+00	3.2472e-03
4.2198e-01	2.5936e+00	2.4828e-03
4.3400e-01	2.5669e+00	1.9061e-03
4.4673e-01	2.5427e+00	1.4634e-03
4.6023e-01	2.5208e+00	1.1201e-03
4.7458e-01	2.5007e+00	8.5406e-04
4.8984e-01	2.4822e+00	6.4748e-04
5.0612e-01	2.4653e+00	4.8833e-04
5.2352e-01	2.4496e+00	3.6587e-04
5.4216e-01	2.4350e+00	2.7253e-04
5.6217e-01	2.4216e+00	2.0165e-04
5.8372e-01	2.4091e+00	1.4829e-04
6.0698e-01	2.3974e+00	1.0834e-04
6.3218e-01	2.3866e+00	7.8646e-05
6.5956e-01	2.3765e+00	5.6734e-05
6.8942e-01	2.3671e+00	4.0655e-05
7.2211e-01	2.3584e+00	2.8960e-05
7.5806e-01	2.3503e+00	2.0486e-05
7.9777e-01	2.3427e+00	1.4411e-05
8.4187e-01	2.3357e+00	1.0065e-05
8.9113e-01	2.3292e+00	6.9913e-06
9.4652e-01	2.3231e+00	4.8222e-06
1.0092e+00	2.3176e+00	3.3070e-06
1.0809e+00	2.3124e+00	2.2527e-06
1.1635e+00	2.3077e+00	1.5252e-06
1.2597e+00	2.3034e+00	1.0261e-06
1.3733e+00	2.2995e+00	6.8588e-07
1.5094e+00	2.2959e+00	4.5576e-07
1.6755e+00	2.2928e+00	3.0073e-07
