Material: main / SrTiO3 / Chernova
Optical constants. E. Chernova, C. Brooks, D. Chvostova, Z. Bryknar, A. Dejneka, M. Tyunina. Optical NIR-VIS-VUV constants of advanced substrates for thin-film devices. Opt. Mater. Express 7, 3844â€“3862 (2017) [Calculation script (Python)]
Comments: Single crystal Strontium titanate.
wavelength (um)	n	k
1.4089e-01	1.9231e+00	1.0112e+00
1.4221e-01	1.9301e+00	9.8106e-01
1.4355e-01	1.9337e+00	9.5094e-01
1.4491e-01	1.9334e+00	9.2160e-01
1.4631e-01	1.9294e+00	8.9558e-01
1.4772e-01	1.9270e+00	8.7492e-01
1.4917e-01	1.9317e+00	8.5015e-01
1.5065e-01	1.9304e+00	8.1286e-01
1.5215e-01	1.9131e+00	7.7683e-01
1.5369e-01	1.8900e+00	7.5048e-01
1.5525e-01	1.8665e+00	7.2942e-01
1.5685e-01	1.8415e+00	7.1121e-01
1.5849e-01	1.8142e+00	6.9603e-01
1.6015e-01	1.7845e+00	6.8439e-01
1.6185e-01	1.7526e+00	6.7675e-01
1.6359e-01	1.7188e+00	6.7359e-01
1.6537e-01	1.6835e+00	6.7524e-01
1.6719e-01	1.6471e+00	6.8212e-01
1.6904e-01	1.6099e+00	6.9448e-01
1.7094e-01	1.5721e+00	7.1270e-01
1.7288e-01	1.5340e+00	7.3717e-01
1.7486e-01	1.4952e+00	7.6895e-01
1.7690e-01	1.4556e+00	8.1028e-01
1.7897e-01	1.4166e+00	8.6545e-01
1.8110e-01	1.3837e+00	9.3989e-01
1.8328e-01	1.3689e+00	1.0355e+00
1.8552e-01	1.3872e+00	1.1440e+00
1.8780e-01	1.4444e+00	1.2465e+00
1.9015e-01	1.5340e+00	1.3243e+00
1.9255e-01	1.6434e+00	1.3670e+00
1.9502e-01	1.7585e+00	1.3635e+00
1.9755e-01	1.8489e+00	1.3082e+00
2.0014e-01	1.8776e+00	1.2281e+00
2.0281e-01	1.8464e+00	1.1763e+00
2.0555e-01	1.7973e+00	1.1805e+00
2.0836e-01	1.7678e+00	1.2264e+00
2.1125e-01	1.7679e+00	1.2895e+00
2.1422e-01	1.7939e+00	1.3544e+00
2.1728e-01	1.8396e+00	1.4133e+00
2.2042e-01	1.8997e+00	1.4625e+00
2.2366e-01	1.9696e+00	1.5004e+00
2.2699e-01	2.0454e+00	1.5257e+00
2.3043e-01	2.1225e+00	1.5389e+00
2.3397e-01	2.1965e+00	1.5422e+00
2.3762e-01	2.2643e+00	1.5411e+00
2.4139e-01	2.3278e+00	1.5444e+00
2.4527e-01	2.3984e+00	1.5579e+00
2.4929e-01	2.4931e+00	1.5748e+00
2.5344e-01	2.6193e+00	1.5710e+00
2.5773e-01	2.7594e+00	1.5195e+00
2.6216e-01	2.8760e+00	1.4153e+00
2.6675e-01	2.9372e+00	1.2855e+00
2.7151e-01	2.9399e+00	1.1755e+00
2.7644e-01	2.9190e+00	1.1195e+00
2.8155e-01	2.9251e+00	1.1143e+00
2.8685e-01	2.9869e+00	1.1171e+00
2.9236e-01	3.0901e+00	1.0807e+00
2.9808e-01	3.1914e+00	9.8928e-01
3.0403e-01	3.2563e+00	8.6952e-01
3.1023e-01	3.3042e+00	7.5646e-01
3.1668e-01	3.3650e+00	6.1540e-01
3.2340e-01	3.3750e+00	4.1259e-01
3.3042e-01	3.2851e+00	2.2452e-01
3.3775e-01	3.1526e+00	1.1492e-01
3.4541e-01	3.0352e+00	6.3210e-02
3.5342e-01	2.9418e+00	3.7603e-02
3.6182e-01	2.8665e+00	2.3430e-02
3.7063e-01	2.8044e+00	1.5108e-02
3.7987e-01	2.7519e+00	9.8796e-03
3.8959e-01	2.7068e+00	6.4666e-03
3.9982e-01	2.6675e+00	4.1960e-03
4.1060e-01	2.6327e+00	2.6927e-03
4.2198e-01	2.6018e+00	1.7086e-03
4.3400e-01	2.5740e+00	1.0732e-03
4.4673e-01	2.5490e+00	6.6922e-04
4.6023e-01	2.5262e+00	4.1464e-04
4.7458e-01	2.5055e+00	2.5644e-04
4.8984e-01	2.4865e+00	1.5821e-04
5.0612e-01	2.4691e+00	9.7918e-05
5.2352e-01	2.4530e+00	6.0678e-05
5.4216e-01	2.4381e+00	3.7799e-05
5.6217e-01	2.4244e+00	2.3634e-05
5.8372e-01	2.4116e+00	1.4857e-05
6.0698e-01	2.3997e+00	9.3796e-06
6.3218e-01	2.3887e+00	5.9465e-06
6.5956e-01	2.3785e+00	3.7855e-06
6.8942e-01	2.3689e+00	2.4169e-06
7.2211e-01	2.3600e+00	1.5498e-06
7.5806e-01	2.3518e+00	9.9625e-07
7.9777e-01	2.3441e+00	6.4387e-07
8.4187e-01	2.3369e+00	4.1747e-07
8.9113e-01	2.3303e+00	2.7247e-07
9.4652e-01	2.3242e+00	1.7869e-07
1.0092e+00	2.3185e+00	1.1804e-07
1.0809e+00	2.3133e+00	7.8466e-08
1.1635e+00	2.3085e+00	5.2532e-08
1.2597e+00	2.3041e+00	3.5404e-08
1.3733e+00	2.3002e+00	2.4003e-08
1.5094e+00	2.2966e+00	1.6368e-08
1.6755e+00	2.2933e+00	1.1204e-08
