Material: main / Si / Franta-250K
Optical constants. D. Franta, A. Dubroka, C. Wang, A. Giglia, J. Vohánka, P. Franta, I. Ohlídal. Temperature-dependent dispersion model of float zone crystalline silicon, Appl. Surf. Sci. 421, 405-419 (2017) (Numerical data kindly provided by Daniel Franta)
Comments: Float zone c-Si; Heterogenous data processing combining ellipsometric and spectrophotometric measurements with refractive index determined in B. J. Frey, D. B. Leviton, T. J. Madison. Temperature-dependent refractive index of silicon and germanium, Proc. SPIE 6273, 62732J (2006). Numerical procedures updated in D. Franta, P. Franta, J. Vohánka, M. Čermák, I. Ohlídal. Determination of thicknesses and temperatures of crystalline silicon wafers from optical measurements in the far infrared region, J. Appl. Phys. 123, 185707 (2018). Temperature 250 K."
Conditions: {"temperature": 250}
wavelength (um)	n	k
0.0309963	0.916650571635	0.0106233533192
0.0317914	0.911665411474	0.0115319076838
0.0326069	0.906409259252	0.0125197666329
0.0334434	0.900864599068	0.0135939771146
0.0343012	0.895015482556	0.0147621700995
0.0351811	0.888842719081	0.0160326795737
0.0360836	0.88231769887	0.0174147347887
0.0370092	0.875438298757	0.0189178206236
0.0379586	0.86816098038	0.0205530779205
0.0389323	0.860478835987	0.0223317625893
0.039931	0.852361529186	0.0242665960673
0.0409553	0.843775754384	0.0263714658338
0.0420059	0.834689042514	0.0286614124355
0.0430834	0.82506957304	0.0311527057362
0.0441886	0.814879524799	0.0338631931683
0.0453221	0.804639727677	0.0367866790672
0.0464847	0.793545092136	0.0399750076166
0.0476771	0.780366557071	0.0435196223803
0.0489001	0.767427105763	0.047323859137
0.0501545	0.753722874107	0.0514635264169
0.0514411	0.739861883196	0.0559192529595
0.0527606	0.724105395052	0.0608499094058
0.054114	0.707031455982	0.0662611953945
0.0555022	0.689198431895	0.0721455701935
0.0569259	0.669728315307	0.0786428716174
0.0583862	0.647973786373	0.0859246260266
0.0598839	0.624938610502	0.0939766715322
0.06142	0.598646713264	0.103250149429
0.0629956	0.569359866528	0.114225702787
0.0646115	0.535615382318	0.129493105284
0.0662689	0.498414865258	0.15435779556
0.0679688	0.468924156307	0.186628163874
0.0697124	0.445571824073	0.217024047478
0.0715006	0.419710085269	0.243772681205
0.0733348	0.388004456927	0.273189491691
0.0752159	0.353432026305	0.309428791615
0.0771454	0.319412487701	0.353875939333
0.0791243	0.289379213427	0.405982469699
0.081154	0.265854455471	0.464324667943
0.0832357	0.25014079128	0.52448728888
0.0853709	0.240305354989	0.582976406754
0.0875608	0.232932307518	0.638966601209
0.0898069	0.223871467663	0.695293399865
0.0921107	0.21599501051	0.757118356833
0.0944735	0.214590644224	0.822731922915
0.0968969	0.219592740455	0.88767640252
0.0993825	0.228222003127	0.950281327715
0.101932	0.238649109195	1.01155863628
0.104547	0.250546047818	1.07288510229
0.107228	0.264408006403	1.13515360907
0.109979	0.281186067446	1.19900799613
0.1128	0.303114309581	1.26492731986
0.115694	0.334824640581	1.33061461826
0.118662	0.377784192821	1.38527434728
0.121705	0.415416859762	1.41984135912
0.124827	0.433426143305	1.45281295147
0.128029	0.443993815979	1.49817520304
0.131314	0.45914887329	1.55251240395
0.134682	0.479769051895	1.60797247816
0.138137	0.502992241581	1.66236741233
0.14168	0.526586202852	1.71450599027
0.145315	0.545500223431	1.76667455517
0.149042	0.562979682931	1.82736125434
0.152866	0.589488080216	1.89182711653
0.156787	0.61969174211	1.9477548312
0.160809	0.637625557112	1.99893074144
0.164934	0.643084347207	2.06467985159
0.169165	0.653200573152	2.15053217284
0.173504	0.677876777549	2.24828156547
0.177955	0.717365736962	2.34603986123
0.18252	0.761417208236	2.44787284098
0.187202	0.825729245684	2.54231643703
0.192004	0.884986232945	2.63221940187
0.196929	0.946458862915	2.72488079032
0.201981	1.0116073321	2.82097032887
0.207162	1.08161609325	2.92131472206
0.212476	1.15761305449	3.02719351885
0.217926	1.2417297541	3.14266966761
0.223517	1.35208587385	3.27591910265
0.22925	1.52781495636	3.37696075866
0.235131	1.66087868745	3.3663545167
0.241163	1.65543174344	3.40616495091
0.247349	1.66347281197	3.57345769384
0.253694	1.72498553084	3.78992983153
0.260202	1.81544446381	4.06857594715
0.266876	2.00401604604	4.47048635923
0.273722	2.46057302196	4.915858599
0.280744	3.13967250149	5.1810946737
0.287945	4.12759807496	5.25394221219
0.295332	4.9025583464	4.49944598491
0.302907	5.02987032763	3.87009367455
0.310678	5.0400301812	3.50380466744
0.318647	5.067898007	3.26944643779
0.326821	5.12205785708	3.09107253755
0.335205	5.18672238521	2.951987495
0.343803	5.2621242046	2.88038006035
0.352622	5.41955896026	2.97521389879
0.361668	6.2850380481	3.12343951887
0.370945	7.11367056847	1.80585308853
0.380461	6.51751657313	0.740974238487
0.39022	5.94507626271	0.404974989959
0.40023	5.54801092818	0.268410416943
0.410497	5.26791924347	0.200125932724
0.421027	5.05482757977	0.152723718539
0.431827	4.88057806898	0.117286090305
0.442904	4.73345271687	0.0917838839655
0.454266	4.60777929658	0.0741494291024
0.465918	4.49987437711	0.0621664422083
0.47787	4.40679886845	0.053863059614
0.490128	4.32599314448	0.0477220156275
0.502701	4.25522057027	0.0427261716091
0.515596	4.1925977588	0.0382957045359
0.528822	4.1366103911	0.0341700654472
0.542388	4.08608584016	0.030281231191
0.556301	4.04014135445	0.0266505476516
0.570571	3.99812816739	0.023322165387
0.585207	3.95954598354	0.0203301351669
0.600219	3.92401163818	0.0176879120534
0.615616	3.89121326552	0.0153898793011
0.631408	3.86089006276	0.0134170540908
0.647605	3.83281688956	0.0117430318158
0.664217	3.806798497	0.0103385038735
0.681255	3.78266496306	0.00917399446062
0.698731	3.76026400992	0.00822087451309
0.716655	3.73946590208	0.00745065514511
0.735038	3.72015859486	0.00683247192213
0.753893	3.70224228118	0.00632858974035
0.773232	3.68562781238	0.00588876981943
0.793067	3.67022008348	0.00544763968401
0.813411	3.65589883409	0.00493427135435
0.834276	3.64250558253	0.00430159198547
0.855677	3.62987726388	0.00356099386702
0.877627	3.61788265694	0.00278337956893
0.90014	3.60645940893	0.00205598165782
0.92323	3.5956013664	0.00143838963113
0.946913	3.58531404179	0.000951747226342
0.971203	3.5755970997	0.000590603017533
0.996116	3.56644331518	0.000337250551521
1.02167	3.55783232994	0.000171150747039
1.04788	3.54974137384	7.36517616471e-05
1.07476	3.54214472055	2.95474103939e-05
1.10233	3.535024739	1.40491383463e-05
1.1306	3.52833418839	5.22382996894e-06
1.1596	3.52203990684	9.99776461005e-07
1.18935	3.51611225631	8.76768195685e-08
1.21986	3.51052523068	4.97918568592e-08
1.25115	3.50525588044	2.87836001282e-08
1.28325	3.50028197594	1.69138718151e-08
1.31616	3.4955846368	1.01001094051e-08
1.34993	3.49114724417	6.12725837733e-09
1.38455	3.48695344264	3.77512574797e-09
1.42007	3.48298815255	2.36147486239e-09
1.4565	3.47923729611	1.49925040738e-09
1.49386	3.47568962992	9.6570230826e-10
1.53218	3.47233175141	6.30831405826e-10
1.57148	3.46915291201	4.17719132394e-10
1.6118	3.46614289148	2.80238084835e-10
1.65314	3.4632931772	1.90359070329e-10
1.69555	3.46059316758	1.3082922323e-10
1.73904	3.45803570193	9.08936356554e-11
1.78365	3.45561212615	6.37648362913e-11
1.82941	3.45331450062	4.51070922068e-11
1.87633	3.45113711308	3.21179064543e-11
1.92446	3.44907264963	2.29648595227e-11
1.97383	3.44711457239	1.64362417059e-11
2.02446	3.44525864225	1.17219521109e-11
2.07639	3.44349839646	8.27458067497e-12
2.12966	3.44182767997	5.72033716934e-12
2.18429	3.44024370861	3.80137286366e-12
2.24032	3.43874099843	2.3380528711e-12
2.29779	3.43731456801	1.75456628456e-12
2.35673	3.43596083219	1.44762544194e-12
2.41718	3.43467673377	1.20453392226e-12
2.47919	3.43345724295	1.01151619413e-12
2.54279	3.43230032602	8.57989330891e-13
2.60801	3.43120152189	7.3578920582e-13
2.67491	3.43015868327	6.38590753214e-13
2.74353	3.42916818612	5.61475534522e-13
2.81391	3.42822824462	5.00604919375e-13
2.88609	3.42733566861	4.52974128109e-13
2.96012	3.42648765826	4.16224703759e-13
3.03606	3.4256825467	3.88501752889e-13
3.11394	3.42491796427	3.68344945152e-13
3.19382	3.42419168532	3.5460443425e-13
3.27574	3.4235024772	3.46376018506e-13
3.35977	3.42284702548	3.42951322897e-13
3.44596	3.42222482168	3.43778362884e-13
3.53435	3.42163301129	3.48431734672e-13
3.62502	3.42107177703	3.56588375853e-13
3.718	3.4205379917	3.68009665955e-13
3.81338	3.42003110744	3.82526278323e-13
3.9112	3.41954919845	4.0002717909e-13
4.01153	3.41909126785	4.20450424478e-13
4.11443	3.41865644433	4.43776213163e-13
4.21998	3.41824318125	4.70021504249e-13
4.32823	3.41785026422	4.99235622149e-13
4.43925	3.41747635178	5.3149702124e-13
4.55313	3.41712152626	5.66910519392e-13
4.66992	3.41678462297	6.36408648571e-13
4.78972	3.41646384143	2.05200320106e-10
4.91258	3.41615858411	2.79778587953e-09
5.0386	3.41586893156	2.6905871657e-08
5.16785	3.41559329101	1.70844311504e-07
5.30042	3.4153309665	1.98272140197e-07
5.43638	3.41508173338	2.5273684337e-07
5.57583	3.41484475277	4.22759176364e-07
5.71887	3.41461888853	5.20127566273e-07
5.86557	3.4144042638	5.4173975862e-07
6.01603	3.41419953384	6.85808741372e-07
6.17035	3.41400398788	9.69624932083e-07
6.32863	3.41381833136	1.19441311509e-06
6.49097	3.41363997275	1.39206246372e-06
6.65748	3.41346660654	3.84426272676e-06
6.82826	3.41330344916	1.90216071107e-05
7.00342	3.41316828988	1.99346936035e-05
7.18307	3.41302219406	1.74798855715e-05
7.36733	3.41288594991	1.68196900443e-05
7.55631	3.41275042328	2.1240071414e-05
7.75015	3.41263389018	2.47943046317e-05
7.94895	3.41251520912	1.78055783224e-05
8.15286	3.41239263178	1.58463427981e-05
8.36199	3.41227458505	2.57767668957e-05
8.5765	3.41217126651	3.91022726347e-05
8.7965	3.41207793557	5.60573668422e-05
9.02215	3.41200340175	5.94495244035e-05
9.25358	3.41192257838	4.51497403128e-05
9.49095	3.41182442593	3.2636781741e-05
9.73442	3.41171684468	3.7026125325e-05
9.98412	3.41162033059	6.35893097128e-05
10.2402	3.41154997952	0.000102526966911
10.5029	3.41149997011	0.000114253552496
10.7723	3.41142317431	0.000131041128925
11.0487	3.41137679496	0.000179344575778
11.3321	3.41136887479	0.000191907114577
11.6228	3.41135124012	0.000161087259694
11.9209	3.41126539459	0.000125332911451
12.2267	3.41121645219	0.000180440288782
12.5404	3.41115314703	0.000157419883982
12.862	3.41111601221	0.00018582078899
13.192	3.41107433199	0.000212806429708
13.5304	3.41109197338	0.00028522080621
13.8775	3.41114947904	0.000193573669619
14.2334	3.41103524691	8.40030039918e-05
14.5986	3.41093514029	0.000100089714254
14.973	3.4108421999	0.000110503963201
15.3571	3.4107299757	0.000126784303987
15.7511	3.41049197103	0.000164583995628
16.1551	3.41054865713	0.000935830545646
16.5695	3.41123892967	0.000800440559541
16.9946	3.41117138993	0.000363597852397
17.4305	3.41101321063	0.0003248387711
17.8776	3.41102691084	0.000338160143439
18.3362	3.41101962573	0.000301480580572
18.8066	3.41099552899	0.000273282592961
19.289	3.41098101171	0.000257722004104
19.7838	3.41097313362	0.000239598152705
20.2913	3.41096518999	0.000222588520022
20.8118	3.41096362512	0.000191523790024
21.3457	3.4109406613	0.00015626696558
21.8932	3.41091292431	0.000134494598549
22.4548	3.4108879448	0.000117960522766
23.0308	3.4108624858	0.000102923297252
23.6216	3.41083535292	9.13394446291e-05
24.2276	3.41080909935	8.41715885542e-05
24.8491	3.410783789	8.03417452155e-05
25.4865	3.41075863638	8.0123790265e-05
26.1403	3.41073614879	9.136718701e-05
26.8108	3.41073201439	9.3615419183e-05
27.4986	3.41072021639	9.07404677536e-05
28.2039	3.41070747832	8.95966014563e-05
28.9274	3.41069546723	8.93580484367e-05
29.6695	3.41068350404	9.02232068853e-05
30.4306	3.41067275563	9.18169311848e-05
31.2112	3.41066092277	9.53579667072e-05
32.0118	3.41065912134	0.000103314019127
32.8329	3.41065535465	9.7695957203e-05
33.6752	3.41064798138	9.65401168888e-05
34.539	3.41064063825	9.64286303838e-05
35.425	3.41063457188	9.65485098025e-05
36.3337	3.41062855474	9.67132769108e-05
37.2658	3.41062236274	9.69407925666e-05
38.2217	3.4106171788	9.77662772167e-05
39.2021	3.41061192709	9.81959249969e-05
40.2078	3.41060633947	9.91219569228e-05
41.2392	3.41060239604	9.99559966425e-05
42.297	3.41059622464	0.00010114680107
43.382	3.41059131631	0.000104152237355
44.4949	3.41058750643	0.000107355181627
45.6362	3.41058501365	0.000110536145634
46.8069	3.41058240384	0.000113705403798
48.0076	3.41058017403	0.000116982436548
49.2391	3.41057796252	0.000120780440533
50.5022	3.41057754192	0.000125039662454
51.7976	3.4105773892	0.000129319942406
53.1263	3.41057885264	0.000133518835433
54.4891	3.41058017884	0.000137627734643
55.8869	3.4105829416	0.000141609148227
57.3205	3.4105862178	0.000145391286241
58.7909	3.41059104368	0.000148911643503
60.299	3.41059620192	0.000152197622153
61.8458	3.41060232255	0.000155948743512
63.4322	3.41061220788	0.00016089042904
65.0594	3.41063014803	0.000159450311675
66.7283	3.41064474967	0.000145035581667
68.44	3.4106454391	0.000128271806836
70.1956	3.41064184466	0.000118982190348
71.9963	3.41063773882	0.000112315753804
73.8431	3.41063312328	0.000108375804173
75.7373	3.41062789519	0.000108236767443
77.6801	3.4106255899	0.000110551076707
79.6728	3.41062541808	0.000116545510756
81.7165	3.41063380681	0.000122062877093
83.8127	3.41064672984	0.000119460912967
85.9627	3.41065675266	0.000109068756996
88.1678	3.41065755187	9.73057597421e-05
90.4294	3.41065638677	8.81290347973e-05
92.7491	3.41065287866	8.17322876817e-05
95.1283	3.41064920651	7.71659372246e-05
97.5686	3.41064638256	7.37008046299e-05
100.071	3.41064294291	7.09374662778e-05
102.638	3.41064180594	6.86571207662e-05
105.271	3.41064041887	6.67253457928e-05
107.972	3.41063907714	6.50518555972e-05
110.741	3.41063838094	6.35745198632e-05
113.582	3.41063479752	6.22498946352e-05
116.496	3.410633177	6.10455758274e-05
119.484	3.41063451405	5.99352753738e-05
122.549	3.4106314799	5.88958242731e-05
125.693	3.4106324309	5.79053368976e-05
128.917	3.41063204282	5.6944470952e-05
132.224	3.41063074374	5.60000911003e-05
135.616	3.41063062756	5.50717508337e-05
139.094	3.41062972187	5.41759085655e-05
142.663	3.41062779984	5.33420350083e-05
146.322	3.41063180652	5.26005155291e-05
150.076	3.41062402989	5.19698776097e-05
153.925	3.41063353095	5.14494880306e-05
157.874	3.41062241452	5.10245621965e-05
161.923	3.41063420075	5.06724345644e-05
166.077	3.41062992801	5.03728567364e-05
170.337	3.41062551293	5.01099593576e-05
174.707	3.41062788794	4.98736579813e-05
179.188	3.41062570745	4.96584218215e-05
183.785	3.41062431456	4.94611065121e-05
188.499	3.41062806382	4.92799724912e-05
193.335	3.41062975533	4.91141056542e-05
198.294	3.41062393958	4.89628602897e-05
203.381	3.41061519542	4.88255829877e-05
208.598	3.4106193392	4.87015344729e-05
213.949	3.41061866175	4.85905032181e-05
219.437	3.41064051628	4.84916687143e-05
225.066	3.41062547214	4.84054685893e-05
230.839	3.4106182284	4.83308746062e-05
236.761	3.41060606556	4.82676852228e-05
242.834	3.41062983655	4.82149483079e-05
249.063	3.41060639672	4.81734730475e-05
255.452	3.41063566546	4.81414905578e-05
262.005	3.41062931093	4.81199039606e-05
268.726	3.41063329874	4.81077363066e-05
275.619	3.41065572225	4.81045663058e-05
282.69	3.41062316976	4.81111475529e-05
289.941	3.41061739736	4.81260749711e-05
297.379	3.41062716473	4.81492883339e-05
305.007	3.41061108507	4.81811888832e-05
