Material: main / Si / Franta-200K
Optical constants. D. Franta, A. Dubroka, C. Wang, A. Giglia, J. Vohánka, P. Franta, I. Ohlídal. Temperature-dependent dispersion model of float zone crystalline silicon, Appl. Surf. Sci. 421, 405-419 (2017) (Numerical data kindly provided by Daniel Franta)
Comments: Float zone c-Si; Heterogenous data processing combining ellipsometric and spectrophotometric measurements with refractive index determined in B. J. Frey, D. B. Leviton, T. J. Madison. Temperature-dependent refractive index of silicon and germanium, Proc. SPIE 6273, 62732J (2006). Numerical procedures updated in D. Franta, P. Franta, J. Vohánka, M. Čermák, I. Ohlídal. Determination of thicknesses and temperatures of crystalline silicon wafers from optical measurements in the far infrared region, J. Appl. Phys. 123, 185707 (2018). Temperature 200 K."
Conditions: {"temperature": 200}
wavelength (um)	n	k
0.0309963	0.916859691172	0.010778761778
0.0317914	0.911900054616	0.0116998548247
0.0326069	0.906671722921	0.0127011570633
0.0334434	0.901158220324	0.0137897378315
0.0343012	0.895336706015	0.0149733706487
0.0351811	0.889218308395	0.0162598854609
0.0360836	0.88274132941	0.0176590629722
0.0370092	0.875913519875	0.0191802003351
0.0379586	0.868702069536	0.0208341452349
0.0389323	0.861078208333	0.0226325763185
0.039931	0.853031504528	0.0245876068462
0.0409553	0.844521503793	0.0267131150947
0.0420059	0.83553073561	0.0290233715496
0.0430834	0.826018390471	0.0315344996259
0.0441886	0.815958935584	0.0342633061784
0.0453221	0.805287538177	0.0372295717437
0.0464847	0.793910959326	0.0404564483701
0.0476771	0.781684085738	0.0439727614655
0.0489001	0.76864813597	0.0478002012248
0.0501545	0.755137247119	0.0519407570364
0.0514411	0.740995475538	0.0564252380759
0.0527606	0.725414711973	0.0613442818381
0.054114	0.70874959874	0.0667098320291
0.0555022	0.690654885604	0.0725978452993
0.0569259	0.671436674443	0.079028930883
0.0583862	0.650520962457	0.0861389192762
0.0598839	0.627626741051	0.0940663644558
0.06142	0.601844709081	0.103105966967
0.0629956	0.572835773366	0.113808937213
0.0646115	0.538694974979	0.128838113317
0.0662689	0.502654402023	0.152866966941
0.0679688	0.472756077389	0.184599449079
0.0697124	0.449225609291	0.214373535973
0.0715006	0.423678735872	0.240115692325
0.0733348	0.392057996946	0.268311234321
0.0752159	0.357149591997	0.303237649852
0.0771454	0.322318616412	0.346498560636
0.0791243	0.29115822589	0.397610013812
0.081154	0.266392627841	0.454533957859
0.0832357	0.248567571181	0.513116949364
0.0853709	0.235247429552	0.571368236235
0.0875608	0.22433949147	0.628731823081
0.0898069	0.212914114335	0.687756111581
0.0921107	0.204105607313	0.752795955965
0.0944735	0.202819571629	0.820930042743
0.0968969	0.208356354996	0.887810757394
0.0993825	0.217630874277	0.952148530242
0.101932	0.228809782547	1.01484881736
0.104547	0.2415426786	1.07741583749
0.107228	0.256338519195	1.14068345021
0.109979	0.274121390186	1.20533513693
0.1128	0.297058109754	1.27188921096
0.115694	0.329678982509	1.33803552889
0.118662	0.373406534818	1.39306698844
0.121705	0.411688830929	1.42798562622
0.124827	0.430382182386	1.46167397382
0.128029	0.441885329144	1.50749974353
0.131314	0.457969183973	1.56243436917
0.134682	0.479740227694	1.61846111061
0.138137	0.504311004011	1.67340653394
0.14168	0.529499801135	1.72595967244
0.145315	0.550278022036	1.77832221418
0.149042	0.569736926757	1.83885074026
0.152866	0.598339517771	1.90298193014
0.156787	0.631078373649	1.95825495965
0.160809	0.651835702706	2.00794946084
0.164934	0.660099792499	2.0712564752
0.169165	0.672789408729	2.15317293008
0.173504	0.697774089175	2.24504523686
0.177955	0.734134146561	2.33858318627
0.18252	0.774760235252	2.43910026109
0.187202	0.838329059567	2.53283169575
0.192004	0.896537447061	2.62152195527
0.196929	0.956965832651	2.71272718279
0.201981	1.02089785831	2.80716908887
0.207162	1.08932377081	2.90568196493
0.212476	1.16302965836	3.00963366784
0.217926	1.24322237538	3.12384728065
0.223517	1.34951985602	3.26249824992
0.22925	1.54173419303	3.36653566103
0.235131	1.67662442262	3.32177996057
0.241163	1.63712833505	3.351856377
0.247349	1.62475656048	3.52557487386
0.253694	1.66092724689	3.74855630883
0.260202	1.7164070426	4.05238110684
0.266876	1.88427033738	4.52003691254
0.273722	2.38900831674	5.0441454883
0.280744	3.16176790185	5.31805609199
0.287945	4.23099704319	5.32756288783
0.295332	4.96273089817	4.5057184945
0.302907	5.06406362778	3.85902787725
0.310678	5.03976563433	3.50254286176
0.318647	5.05849350417	3.30073286599
0.326821	5.12897286137	3.15222891474
0.335205	5.22532446316	3.03344310038
0.343803	5.34656841138	2.97930758582
0.352622	5.6270338386	3.07696197145
0.361668	6.60882316391	2.96282655715
0.370945	7.09355563591	1.5230401111
0.380461	6.47392320609	0.638743745904
0.39022	5.90250353064	0.317758679008
0.40023	5.50444189885	0.210201657436
0.410497	5.23074052462	0.15492127019
0.421027	5.01951091232	0.114738391817
0.431827	4.84574769482	0.0860491860796
0.442904	4.69957370401	0.0668715310162
0.454266	4.57557245174	0.0546861320527
0.465918	4.46982591007	0.0470711396276
0.47787	4.3790695483	0.0420840239009
0.490128	4.30049181087	0.0383760227156
0.502701	4.23171769807	0.0351461905722
0.515596	4.17081890002	0.0320157803693
0.528822	4.1162923071	0.0288800105753
0.542388	4.06700856201	0.0257764825456
0.556301	4.02213347397	0.0227914034285
0.570571	3.98105146907	0.020006474152
0.585207	3.94329765679	0.0174773654973
0.600219	3.90850410669	0.0152310667758
0.615616	3.87637591719	0.0132715801317
0.631408	3.84666042131	0.0115876970588
0.647605	3.81914078622	0.0101596945873
0.664217	3.79362864769	0.00896408563072
0.681255	3.76995788398	0.0079763530431
0.698731	3.74798249547	0.00717183669885
0.716655	3.72757554463	0.00652483433693
0.735038	3.70862844501	0.00600576706479
0.753893	3.69104555411	0.00557643725255
0.773232	3.67473536649	0.00518491601359
0.793067	3.65959509153	0.00476570546812
0.813411	3.64549286736	0.0042553246347
0.834276	3.63226698209	0.00362626728677
0.855677	3.61976127829	0.00291423904924
0.877627	3.60787184098	0.00220161279846
0.90014	3.59656297578	0.00156728048658
0.92323	3.58583527304	0.00105302811504
0.946913	3.5756943103	0.000664627184984
0.971203	3.56613508671	0.000387936513356
0.996116	3.55714002699	0.000202454485032
1.02167	3.54868478462	8.8498113051e-05
1.04788	3.54074367307	2.98641635568e-05
1.07476	3.53329260125	1.18044244193e-05
1.10233	3.52630218173	5.11756113063e-06
1.1306	3.51972786636	1.52721752376e-06
1.1596	3.51353712605	1.71496922482e-07
1.18935	3.50770396899	5.88944726893e-08
1.21986	3.50220283886	3.27512136849e-08
1.25115	3.49701169653	1.85100135135e-08
1.28325	3.49211047022	1.06280533687e-08
1.31616	3.48748030424	6.19745222856e-09
1.34993	3.48310506654	3.66887006114e-09
1.38455	3.47896912554	2.20424333756e-09
1.42007	3.47505754298	1.34351398656e-09
1.4565	3.47135745117	8.30469046304e-10
1.49386	3.46785636392	5.20400914274e-10
1.53218	3.46454276624	3.30450162984e-10
1.57148	3.46140560904	2.12531607104e-10
1.6118	3.45843479397	1.38372750684e-10
1.65314	3.45562128888	9.11365039146e-11
1.69555	3.45295586097	6.06699744971e-11
1.73904	3.45043048368	4.07757515629e-11
1.78365	3.44803703997	2.7625571709e-11
1.82941	3.44576843274	1.88269494538e-11
1.87633	3.44361807876	1.28676003767e-11
1.92446	3.44157931778	8.78093360069e-12
1.97383	3.43964565353	5.94239476738e-12
2.02446	3.43781218101	3.94412225376e-12
2.07639	3.43607306708	2.51698479368e-12
2.12966	3.43442308237	1.48157368871e-12
2.18429	3.43285772712	7.17090073966e-13
2.24032	3.43137272625	2.42588637208e-13
2.29779	3.42996348056	1.9620463212e-13
2.35673	3.42862646653	1.59446837423e-13
2.41718	3.42735717506	1.3018206752e-13
2.47919	3.42615260296	1.06776870151e-13
2.54279	3.42500895796	8.79747412452e-14
2.60801	3.42392331904	7.28047017744e-14
2.67491	3.42289284585	6.05131028391e-14
2.74353	3.4219144369	5.05124403083e-14
2.81391	3.42098507573	4.23427697162e-14
2.88609	3.42010280865	3.56424969947e-14
2.96012	3.41926493886	3.0126207933e-14
3.03606	3.4184693725	2.55677046248e-14
3.11394	3.4177137915	2.17870256336e-14
3.19382	3.41699603709	1.86404440031e-14
3.27574	3.41631432681	1.60127419515e-14
3.35977	3.41566663815	1.38112213006e-14
3.44596	3.41505156737	1.19610324904e-14
3.53435	3.41446734943	1.04015316206e-14
3.62502	3.41391219198	9.08341675879e-15
3.718	3.41338454637	7.9664741827e-15
3.81338	3.41288359388	7.01779794367e-15
3.9112	3.41240747862	6.21038246117e-15
4.01153	3.41195475135	5.52199628604e-15
4.11443	3.41152497513	4.93428564335e-15
4.21998	3.41111639466	4.43206077358e-15
4.32823	3.41072840834	4.00271573172e-15
4.43925	3.41035927381	3.63576711653e-15
4.55313	3.41000861509	3.32247651148e-15
4.66992	3.40967516703	4.44395613362e-14
4.78972	3.40935841121	2.13002176385e-10
4.91258	3.40905692691	2.58950317241e-09
5.0386	3.40877049326	2.6750878997e-08
5.16785	3.40849828476	1.51637360049e-07
5.30042	3.40823932838	1.73605540795e-07
5.43638	3.40799286459	2.22058555905e-07
5.57583	3.40775867275	3.67957658974e-07
5.71887	3.40753578088	4.43135998112e-07
5.86557	3.40732355834	4.59375446608e-07
6.01603	3.40712154125	5.81162909759e-07
6.17035	3.4069290645	8.13460993756e-07
6.32863	3.40674545791	9.85491880565e-07
6.49097	3.40656923087	1.19205054172e-06
6.65748	3.40639838973	3.62589096571e-06
6.82826	3.40623888069	1.78720156828e-05
7.00342	3.40610387996	1.77241575563e-05
7.18307	3.40595994203	1.5771517951e-05
7.36733	3.40582539402	1.49627540194e-05
7.55631	3.40569272443	1.91642500197e-05
7.75015	3.40557691904	2.18375204715e-05
7.94895	3.40545947109	1.57059416245e-05
8.15286	3.40534013331	1.43150769397e-05
8.36199	3.40522529411	2.30562810317e-05
8.5765	3.40512376621	3.42259657945e-05
8.7965	3.4050316116	4.86123944824e-05
9.02215	3.40495549981	5.10616855658e-05
9.25358	3.4048740282	3.8287976026e-05
9.49095	3.40477776836	2.74475808485e-05
9.73442	3.40467334506	3.26071136793e-05
9.98412	3.40458046816	5.92263526596e-05
10.2402	3.4045133761	9.49336871536e-05
10.5029	3.40446291175	0.000104875182287
10.7723	3.40438956884	0.000121816425154
11.0487	3.40434574972	0.000165468542278
11.3321	3.40433685013	0.000175244180619
11.6228	3.4043174646	0.000142813501264
11.9209	3.40423197562	0.000108468881577
12.2267	3.40418823965	0.000158261587421
12.5404	3.40412307346	0.000136770476636
12.862	3.40408485862	0.000160844658686
13.192	3.40404254446	0.000186243361254
13.5304	3.40406138987	0.000251292117534
13.8775	3.40410567968	0.000165270184109
14.2334	3.40399682248	7.03896494809e-05
14.5986	3.40390675263	8.47793399434e-05
14.973	3.40382301856	9.43121758759e-05
15.3571	3.40372184507	0.000108487251802
15.7511	3.40350648443	0.000140710028029
16.1551	3.40357422521	0.000807888044767
16.5695	3.40416607311	0.000653258123066
16.9946	3.40408090704	0.000299995692484
17.4305	3.40394492312	0.000274717955002
17.8776	3.40395776029	0.000282361168207
18.3362	3.40394695751	0.000250224925877
18.8066	3.40392366333	0.000225777730779
19.289	3.40390700416	0.000211158923777
19.7838	3.40389654829	0.000196530435492
20.2913	3.40388696434	0.000181932154188
20.8118	3.4038817091	0.000155414428162
21.3457	3.40385941606	0.000126049617
21.8932	3.40383362157	0.000108812640412
22.4548	3.40381028658	9.5015201042e-05
23.0308	3.40378682228	8.22276134797e-05
23.6216	3.40376213945	7.28079544783e-05
24.2276	3.40373776312	6.71181767985e-05
24.8491	3.40371521207	6.4123937768e-05
25.4865	3.40369233248	6.40602522678e-05
26.1403	3.4036729926	7.36918453765e-05
26.8108	3.40366836183	7.47629553576e-05
27.4986	3.40365685833	7.21562762408e-05
28.2039	3.40364476299	7.09476460508e-05
28.9274	3.40363341517	7.04656130249e-05
29.6695	3.40362201676	7.08558375449e-05
30.4306	3.40361228034	7.17470731551e-05
31.2112	3.40360134785	7.42502216559e-05
32.0118	3.40359865157	7.95863665281e-05
32.8329	3.40359355703	7.53089979926e-05
33.6752	3.40358594743	7.4328734676e-05
34.539	3.40357945923	7.40693124674e-05
35.425	3.40357301243	7.39719110014e-05
36.3337	3.40356716682	7.39047593494e-05
37.2658	3.4035612523	7.38933954718e-05
38.2217	3.4035556651	7.43325583269e-05
39.2021	3.4035508413	7.44426307069e-05
40.2078	3.40354568193	7.49585137877e-05
41.2392	3.40354134172	7.53283789522e-05
42.297	3.40353593729	7.6032585281e-05
43.382	3.40353118984	7.79776781171e-05
44.4949	3.40352763399	8.00374011909e-05
45.6362	3.40352431963	8.20744488847e-05
46.8069	3.40352154787	8.41009482548e-05
48.0076	3.40351913947	8.6221072135e-05
49.2391	3.40351666577	8.87739232591e-05
50.5022	3.40351573519	9.16903124087e-05
51.7976	3.40351467777	9.46204328344e-05
53.1263	3.4035144824	9.74888692202e-05
54.4891	3.40351488142	0.00010028980989
55.8869	3.40351631467	0.000102996251346
57.3205	3.40351772484	0.000105557537452
58.7909	3.40352031334	0.000107930715622
60.299	3.4035235645	0.000110140999084
61.8458	3.40352714479	0.000112715990821
63.4322	3.40353370286	0.000116132373169
65.0594	3.40354576011	0.000114858887862
66.7283	3.40355512008	0.000104470761784
68.44	3.40355491685	9.26846285769e-05
70.1956	3.40355210678	8.62058550164e-05
71.9963	3.40354939638	8.13601935176e-05
73.8431	3.4035454956	7.83378965767e-05
75.7373	3.40354124656	7.79150357949e-05
77.6801	3.40353959732	7.92276613057e-05
79.6728	3.40353887268	8.29638209037e-05
81.7165	3.40354370003	8.62679460431e-05
83.8127	3.40355166531	8.4322578946e-05
85.9627	3.40355743424	7.75347230771e-05
88.1678	3.40355717025	7.00101182079e-05
90.4294	3.40355674293	6.4172489677e-05
92.7491	3.40355426095	6.00926582034e-05
95.1283	3.40355087985	5.71627080887e-05
97.5686	3.40354927856	5.49261575115e-05
100.071	3.40354611026	5.31338385075e-05
102.638	3.40354551459	5.16486347544e-05
105.271	3.40354485779	5.03858791775e-05
107.972	3.40354369874	4.92885767316e-05
110.741	3.4035437361	4.83174856291e-05
113.582	3.40354012524	4.74452030181e-05
116.496	3.40353855212	4.66512166112e-05
119.484	3.40354047586	4.59188738634e-05
122.549	3.40353775944	4.5233538904e-05
125.693	3.40353855216	4.4581378157e-05
128.917	3.40353863054	4.39502431527e-05
132.224	3.40353746897	4.33319793293e-05
135.616	3.40353778486	4.27264023105e-05
139.094	3.40353672043	4.21438528958e-05
142.663	3.40353469174	4.16025507376e-05
146.322	3.40353881171	4.1121001873e-05
150.076	3.40353082442	4.07102364847e-05
153.925	3.40354086064	4.03692704041e-05
157.874	3.40353011544	4.00887089837e-05
161.923	3.40354227607	3.98542694319e-05
166.077	3.40353740595	3.96535395574e-05
170.337	3.40353308636	3.94767133949e-05
174.707	3.40353543218	3.93176175728e-05
179.188	3.40353367952	3.91729006272e-05
183.785	3.40353232295	3.9040636078e-05
188.499	3.40353598523	3.89197383056e-05
193.335	3.4035380612	3.88096478793e-05
198.294	3.40353180279	3.87099844107e-05
203.381	3.40352310105	3.86203067974e-05
208.598	3.40352761665	3.85401097656e-05
213.949	3.40352714648	3.84693021197e-05
219.437	3.40354845117	3.84073045127e-05
225.066	3.40353318136	3.83545118897e-05
230.839	3.40352590534	3.8310165017e-05
236.761	3.40351370739	3.82741574661e-05
242.834	3.40353760101	3.82457787903e-05
249.063	3.40351383057	3.8225723886e-05
255.452	3.40354307981	3.82126198627e-05
262.005	3.40353694902	3.82072250272e-05
268.726	3.40354079854	3.82088060687e-05
275.619	3.40356324245	3.82170564277e-05
282.69	3.40353048613	3.82326129803e-05
289.941	3.40352449445	3.82543852852e-05
297.379	3.4035345875	3.82823474952e-05
305.007	3.40351799778	3.83168615964e-05
