Material: main / Si / Franta-50K
Optical constants. D. Franta, A. Dubroka, C. Wang, A. Giglia, J. Vohánka, P. Franta, I. Ohlídal. Temperature-dependent dispersion model of float zone crystalline silicon, Appl. Surf. Sci. 421, 405-419 (2017) (Numerical data kindly provided by Daniel Franta)
Comments: Float zone c-Si; Heterogenous data processing combining ellipsometric and spectrophotometric measurements with refractive index determined in B. J. Frey, D. B. Leviton, T. J. Madison. Temperature-dependent refractive index of silicon and germanium, Proc. SPIE 6273, 62732J (2006). Numerical procedures updated in D. Franta, P. Franta, J. Vohánka, M. Čermák, I. Ohlídal. Determination of thicknesses and temperatures of crystalline silicon wafers from optical measurements in the far infrared region, J. Appl. Phys. 123, 185707 (2018). Temperature 50 K."
Conditions: {"temperature": 50}
wavelength (um)	n	k
0.0309963	0.917008492021	0.0111691777718
0.0317914	0.912070945061	0.0121221692875
0.0326069	0.906868087042	0.0131577204068
0.0334434	0.901384239861	0.0142829915264
0.0343012	0.895590698962	0.015505945567
0.0351811	0.889497102559	0.0168345122599
0.0360836	0.883071269386	0.018277957449
0.0370092	0.876287105517	0.0198461883539
0.0379586	0.8691398189	0.0215493609201
0.0389323	0.861590244945	0.0233991757726
0.039931	0.853617992153	0.0254077235442
0.0409553	0.845201141403	0.0275879310554
0.0420059	0.836319907515	0.0299534495974
0.0430834	0.826919973438	0.0325200439197
0.0441886	0.816983588225	0.0353031490509
0.0453221	0.806468968245	0.0383200420988
0.0464847	0.795341957013	0.0415886751972
0.0476771	0.783537944711	0.0451296775908
0.0489001	0.77101120214	0.0489640854406
0.0501545	0.757702799803	0.0531151306909
0.0514411	0.743527802212	0.0576097904293
0.0527606	0.728405900253	0.0624774662499
0.054114	0.712220021907	0.0677543110944
0.0555022	0.694828333709	0.0734847058525
0.0569259	0.676051917645	0.0797259223296
0.0583862	0.655658848209	0.0865632052251
0.0598839	0.633308262539	0.0941189207983
0.06142	0.608458732385	0.102595982238
0.0629956	0.580093055579	0.112603368755
0.0646115	0.546999860409	0.126561824414
0.0662689	0.511706085187	0.149113274476
0.0679688	0.482168657333	0.179024161098
0.0697124	0.458769129326	0.206824564547
0.0715006	0.432792312414	0.230547072503
0.0733348	0.400520875638	0.256247840413
0.0752159	0.363990129873	0.28865149854
0.0771454	0.326602014893	0.329799002622
0.0791243	0.292213671336	0.379811713312
0.081154	0.264299311609	0.436287412365
0.0832357	0.243214778657	0.49490013079
0.0853709	0.226296004072	0.55404133386
0.0875608	0.212113023814	0.613695866569
0.0898069	0.198580628838	0.675987899218
0.0921107	0.18905845573	0.744127229183
0.0944735	0.187847108632	0.815010840255
0.0968969	0.193825031921	0.883998073456
0.0993825	0.203689942303	0.950004314305
0.101932	0.215536289801	1.01420745508
0.104547	0.229056342756	1.07799787302
0.107228	0.244747073297	1.14226474552
0.109979	0.263504497928	1.20762135772
0.1128	0.287381386764	1.27445127038
0.115694	0.320640000263	1.34039308302
0.118662	0.364360256765	1.39497412098
0.121705	0.401736439951	1.42974964982
0.124827	0.419230098518	1.46458684176
0.128029	0.430126267457	1.51204582295
0.131314	0.446151813992	1.56907869251
0.134682	0.468599296529	1.62730802923
0.138137	0.494479442739	1.68423104247
0.14168	0.521459753621	1.73845168377
0.145315	0.544466232457	1.79205855497
0.149042	0.566454310746	1.85314300325
0.152866	0.597418870953	1.91721796472
0.156787	0.632341731663	1.9721515477
0.160809	0.655459258158	2.02127757453
0.164934	0.666373273369	2.08327256923
0.169165	0.681758966089	2.16236674021
0.173504	0.707160923787	2.24906953293
0.177955	0.740009745301	2.33946122555
0.18252	0.777299234643	2.43768410607
0.187202	0.835618011643	2.53673239352
0.192004	0.895642571381	2.62882638155
0.196929	0.958165165153	2.7214055029
0.201981	1.02415556881	2.81619803471
0.207162	1.09451617077	2.91431040862
0.212476	1.17001677578	3.01718139407
0.217926	1.25173913538	3.12921246717
0.223517	1.35792847849	3.26570966626
0.22925	1.5560212675	3.36431458996
0.235131	1.67552357118	3.30085101233
0.241163	1.61589327161	3.3458306126
0.247349	1.60196739635	3.52718363424
0.253694	1.62423933196	3.75488529154
0.260202	1.65299431107	4.08342301572
0.266876	1.81581383648	4.62648671105
0.273722	2.41260980686	5.21911202771
0.280744	3.28932426764	5.45163153966
0.287945	4.46103247435	5.35205299887
0.295332	5.04648076018	4.41473668409
0.302907	5.0928950675	3.83913709923
0.310678	5.10041060646	3.5144358242
0.318647	5.14536171901	3.29592980415
0.326821	5.21492364131	3.12605083325
0.335205	5.3040699331	3.00454766786
0.343803	5.43445818616	2.96424961079
0.352622	5.78396625315	3.09661252441
0.361668	6.98373680957	2.66340407775
0.370945	7.05326289025	1.19976318163
0.380461	6.29863628854	0.431198068738
0.39022	5.75459527237	0.245952748142
0.40023	5.4079716143	0.171884598649
0.410497	5.15594421149	0.122063705751
0.421027	4.95386377557	0.086762984627
0.431827	4.78614067988	0.0636598354139
0.442904	4.64532471744	0.0496195896309
0.454266	4.52638729322	0.0415107630462
0.465918	4.42526465053	0.0368121341492
0.47787	4.33851675198	0.0337707437415
0.490128	4.26326636647	0.0313251383994
0.502701	4.19718132354	0.0289423138712
0.515596	4.13843926026	0.0264411379611
0.528822	4.08566373703	0.0238369748514
0.542388	4.03783881558	0.0212258190136
0.556301	3.99421854279	0.0187130515243
0.570571	3.95424675549	0.0163800029217
0.585207	3.91749539362	0.0142754435886
0.600219	3.88362179022	0.0124196517813
0.615616	3.85234153305	0.0108126133384
0.631408	3.82341185905	0.00944195554962
0.647605	3.79662199295	0.0082889616573
0.664217	3.77178736705	0.00733240586136
0.681255	3.74874621896	0.00655042021471
0.698731	3.72735744601	0.00592058155387
0.716655	3.70749881091	0.00541818001758
0.735038	3.68906423102	0.00501251625135
0.753893	3.67195781914	0.00466175206805
0.773232	3.65608159805	0.00430961858361
0.793067	3.64131724624	0.00389249416992
0.813411	3.62751438988	0.00336588143256
0.834276	3.61450943698	0.00273950559241
0.855677	3.60217472039	0.0020820505041
0.877627	3.59045107884	0.00147869028545
0.90014	3.57933104538	0.000984241087204
0.92323	3.56882057749	0.000612125322124
0.946913	3.55891578442	0.000349753448282
0.971203	3.54959907533	0.000175845246138
0.996116	3.54084384528	6.99869299216e-05
1.02167	3.53262021531	1.58255604176e-05
1.04788	3.52490110404	8.68030604849e-07
1.07476	3.51766143804	4.00716853376e-07
1.10233	3.51085464858	2.213703782e-07
1.1306	3.50444565094	1.15346392674e-07
1.1596	3.49840570643	6.13077731328e-08
1.18935	3.49270955168	3.31532241394e-08
1.21986	3.48733446213	1.82291711432e-08
1.25115	3.48225975424	1.01873713757e-08
1.28325	3.47746649254	5.78413184105e-09
1.31616	3.47293723419	3.33522206653e-09
1.34993	3.46865585761	1.95233093151e-09
1.38455	3.46460744554	1.15972786979e-09
1.42007	3.46077812122	6.98815444555e-10
1.4565	3.45715499612	4.26969298928e-10
1.49386	3.45372604834	2.64406028807e-10
1.53218	3.45048006545	1.65874655901e-10
1.57148	3.44740656506	1.05362154092e-10
1.6118	3.44449576255	6.7717008148e-11
1.65314	3.44173847256	4.40003625034e-11
1.69555	3.43912610397	2.88723478902e-11
1.73904	3.43665059392	1.91039664108e-11
1.78365	3.43430437495	1.27193283392e-11
1.82941	3.43208034291	8.49525896376e-12
1.87633	3.42997181686	5.66594630544e-12
1.92446	3.42797251519	3.74660986479e-12
1.97383	3.4260765253	2.42704811537e-12
2.02446	3.42427828275	1.5066701867e-12
2.07639	3.4225725459	8.54423012368e-13
2.12966	3.42095437229	3.83817274687e-13
2.18429	3.41941909617	3.72054003508e-14
2.24032	3.41796234049	2.29864989834e-14
2.29779	3.41657993672	1.83270261633e-14
2.35673	3.41526799179	1.46831590414e-14
2.41718	3.41402278993	1.18200679124e-14
2.47919	3.4128408481	9.56000377347e-15
2.54279	3.41171886379	7.76780845878e-15
2.60801	3.41065371301	6.34024651349e-15
2.67491	3.40964245025	5.19811583604e-15
2.74353	3.40868228477	4.2803875872e-15
2.81391	3.40777057841	3.53983433673e-15
2.88609	3.40690482633	2.93975460969e-15
2.96012	3.40608266639	2.45150838278e-15
3.03606	3.40530187016	2.05265511528e-15
3.11394	3.40456030311	1.7255412139e-15
3.19382	3.40385596439	1.45622405346e-15
3.27574	3.40318695397	1.23364920286e-15
3.35977	3.40255146542	1.04901872974e-15
3.44596	3.40194779582	8.95304371614e-16
3.53435	3.40137432471	7.66870932673e-16
3.62502	3.40082951245	6.59183838104e-16
3.718	3.40031190979	5.68581230147e-16
3.81338	3.39982013699	4.9209570816e-16
3.9112	3.39935288349	4.27314406665e-16
4.01153	3.39890890731	3.72268778406e-16
4.11443	3.39848702714	3.25347487769e-16
4.21998	3.3980861305	2.85227323622e-16
4.32823	3.39770515665	2.50818233859e-16
4.43925	3.39734309438	2.21219444971e-16
4.55313	3.3969989841	1.95685259723e-16
4.66992	3.3966719196	4.76998542351e-14
4.78972	3.39636104139	2.10626045917e-10
4.91258	3.39606550908	2.38889698613e-09
5.0386	3.39578452498	2.54876533573e-08
5.16785	3.39551746221	1.34872046997e-07
5.30042	3.39526353588	1.52186681864e-07
5.43638	3.39502201279	1.93455294553e-07
5.57583	3.39479234422	3.15999690765e-07
5.71887	3.39457394925	3.72647491458e-07
5.86557	3.39436604758	3.81357362072e-07
6.01603	3.39416808973	4.7683205085e-07
6.17035	3.3939795867	6.55889518756e-07
6.32863	3.39379987291	7.77561982196e-07
6.49097	3.39362758722	9.87028142379e-07
6.65748	3.3934607176	3.34933440118e-06
6.82826	3.39330509203	1.66163232885e-05
7.00342	3.39317211841	1.59199521778e-05
7.18307	3.39303185576	1.42119388007e-05
7.36733	3.39290015808	1.32908672392e-05
7.55631	3.39277098685	1.70931557216e-05
7.75015	3.39265746876	1.9291472425e-05
7.94895	3.39254289602	1.41729403659e-05
8.15286	3.39242816602	1.29515818355e-05
8.36199	3.39231747666	1.96950238968e-05
8.5765	3.39221861546	2.85908884733e-05
8.7965	3.39212777645	4.03103115862e-05
9.02215	3.39205221479	4.24761244863e-05
9.25358	3.39197160911	3.05172540363e-05
9.49095	3.39187772318	2.10440129032e-05
9.73442	3.39177704777	2.72959864609e-05
9.98412	3.39168935386	5.43603105457e-05
10.2402	3.39162688011	8.64014829189e-05
10.5029	3.39157804673	9.57335721406e-05
10.7723	3.39151042772	0.000111572754871
11.0487	3.39147020582	0.000149634185966
11.3321	3.39146235039	0.000156229988744
11.6228	3.39144363024	0.000121631541542
11.9209	3.39136027693	8.68238680152e-05
12.2267	3.39132141008	0.000130270518351
12.5404	3.39125694384	0.000107474629597
12.862	3.39121835984	0.000127650153932
13.192	3.39117731865	0.000150327575234
13.5304	3.39119502506	0.000207012432604
13.8775	3.39123110726	0.000131003068712
14.2334	3.39113697293	5.04965372531e-05
14.5986	3.39106348489	6.02007030377e-05
14.973	3.39099738617	6.58745269563e-05
15.3571	3.39092260327	7.41746096773e-05
15.7511	3.39077281304	9.19592495835e-05
16.1551	3.39081385092	0.000539085609999
16.5695	3.39120593972	0.0003615501187
16.9946	3.39110027294	0.000162991576543
17.4305	3.39100277129	0.00016252004815
17.8776	3.39101329571	0.000164163556477
18.3362	3.39099411573	0.000140662063718
18.8066	3.390969168	0.000125528961161
19.289	3.39095027959	0.000118908061566
19.7838	3.39093774615	0.000108886588378
20.2913	3.3909249729	9.78418805772e-05
20.8118	3.39091356447	8.12886385464e-05
21.3457	3.39089129195	6.35264250996e-05
21.8932	3.39087010656	5.4707985671e-05
22.4548	3.39085096695	4.55832367066e-05
23.0308	3.39083052085	3.78481523711e-05
23.6216	3.39081036825	3.27910474364e-05
24.2276	3.39079147716	2.99094074722e-05
24.8491	3.39077411988	2.83576769432e-05
25.4865	3.39075758871	2.79629400916e-05
26.1403	3.39074308083	3.26720996829e-05
26.8108	3.39073682189	3.18256991464e-05
27.4986	3.39072655611	2.90186324641e-05
28.2039	3.39071618581	2.70277998666e-05
28.9274	3.39070627157	2.53995862997e-05
29.6695	3.39069677646	2.40142745131e-05
30.4306	3.39068784283	2.27827606511e-05
31.2112	3.39067929615	2.16989107495e-05
32.0118	3.39067141649	2.07830699117e-05
32.8329	3.39066395794	1.96804449881e-05
33.6752	3.39065680058	1.87117165104e-05
34.539	3.39065000721	1.77961994096e-05
35.425	3.39064344979	1.69133125096e-05
36.3337	3.39063744075	1.6055743773e-05
37.2658	3.3906315348	1.5223903763e-05
38.2217	3.39062597992	1.44338381674e-05
39.2021	3.39062077379	1.36326961638e-05
40.2078	3.39061575483	1.28520793908e-05
41.2392	3.39061092953	1.20796777493e-05
42.297	3.39060631999	1.13258554659e-05
43.382	3.39060194404	1.0603370038e-05
44.4949	3.39059763991	9.8982128976e-06
45.6362	3.39059349083	9.21523980053e-06
46.8069	3.39058959331	8.5644169678e-06
48.0076	3.39058570923	7.98808004441e-06
49.2391	3.39058175545	7.61702823411e-06
50.5022	3.39057837807	7.41604284432e-06
51.7976	3.3905749305	7.25127856747e-06
53.1263	3.39057199652	7.09677871368e-06
54.4891	3.39056898765	6.95125025231e-06
55.8869	3.39056650846	6.8140068487e-06
57.3205	3.39056373798	6.68421945738e-06
58.7909	3.39056133651	6.5611886392e-06
60.299	3.39055920126	6.44493505467e-06
61.8458	3.39055703031	6.34083197129e-06
63.4322	3.39055460333	6.25978973753e-06
65.0594	3.39055265191	6.16473425874e-06
66.7283	3.39055097117	6.00566388536e-06
68.44	3.39054881324	5.83418888592e-06
70.1956	3.39054761197	5.72378785762e-06
71.9963	3.39054575032	5.64051324142e-06
73.8431	3.39054456261	5.57290082153e-06
75.7373	3.39054229831	5.53105484464e-06
77.6801	3.39054153303	5.50632997081e-06
79.6728	3.39053983166	5.49370264972e-06
81.7165	3.39053849566	5.48869058738e-06
83.8127	3.39053766166	5.48681664995e-06
85.9627	3.39053731616	5.4878386404e-06
88.1678	3.39053491036	5.49421802911e-06
90.4294	3.39053515557	5.50723546629e-06
92.7491	3.39053399091	5.52657445059e-06
95.1283	3.39053210555	5.55148491388e-06
97.5686	3.39053174916	5.58135634374e-06
100.071	3.39052959605	5.61575247578e-06
102.638	3.39052965385	5.6543149571e-06
105.271	3.3905297752	5.69673751041e-06
107.972	3.39052936199	5.74272903989e-06
110.741	3.39052964089	5.79200448419e-06
113.582	3.39052654663	5.84429969516e-06
116.496	3.39052519247	5.89935158916e-06
119.484	3.39052710878	5.95692071224e-06
122.549	3.3905245127	6.01679959189e-06
125.693	3.39052541289	6.07876609297e-06
128.917	3.39052558189	6.1426309259e-06
132.224	3.39052449927	6.20820787432e-06
135.616	3.39052492888	6.27531058947e-06
139.094	3.39052384276	6.34376202019e-06
142.663	3.39052210778	6.41336850237e-06
146.322	3.39052630326	6.48391319486e-06
150.076	3.39051854471	6.5552198113e-06
153.925	3.39052856049	6.62702534707e-06
157.874	3.39051785257	6.69921415278e-06
161.923	3.39052996007	6.77153156665e-06
166.077	3.39052520663	6.84391144637e-06
170.337	3.39052066735	6.91619947165e-06
174.707	3.3905230626	6.98828358582e-06
179.188	3.39052120229	7.06010802317e-06
183.785	3.39051987639	7.13160065923e-06
188.499	3.39052318733	7.20270335164e-06
193.335	3.3905250456	7.27338909484e-06
198.294	3.39051874174	7.34363926916e-06
203.381	3.39050995373	7.41341263485e-06
208.598	3.39051415484	7.48264789433e-06
213.949	3.39051331176	7.55135819744e-06
219.437	3.39053480278	7.61945711964e-06
225.066	3.3905192689	7.68705427183e-06
230.839	3.39051145029	7.75402827881e-06
236.761	3.39049900963	7.82038899852e-06
242.834	3.39052304198	7.8860266636e-06
249.063	3.39049867119	7.95112783205e-06
255.452	3.39052803492	8.01544777224e-06
262.005	3.39052142562	8.079195764e-06
268.726	3.3905248262	8.14226690353e-06
275.619	3.39054742707	8.20464727797e-06
282.69	3.39051424953	8.26653344205e-06
289.941	3.39050795231	8.32774663534e-06
297.379	3.39051763957	8.38834040278e-06
305.007	3.39050062851	8.44845524778e-06
