Material: main / Si / Franta-500K
Optical constants. D. Franta, A. Dubroka, C. Wang, A. Giglia, J. Vohánka, P. Franta, I. Ohlídal. Temperature-dependent dispersion model of float zone crystalline silicon, Appl. Surf. Sci. 421, 405-419 (2017) (Numerical data kindly provided by Daniel Franta)
Comments: Float zone c-Si; Heterogenous data processing combining ellipsometric and spectrophotometric measurements with refractive index determined in B. J. Frey, D. B. Leviton, T. J. Madison. Temperature-dependent refractive index of silicon and germanium, Proc. SPIE 6273, 62732J (2006). Numerical procedures updated in D. Franta, P. Franta, J. Vohánka, M. Čermák, I. Ohlídal. Determination of thicknesses and temperatures of crystalline silicon wafers from optical measurements in the far infrared region, J. Appl. Phys. 123, 185707 (2018). Temperature 500 K."
Conditions: {"temperature": 500}
wavelength (um)	n	k
0.0309963	0.916581643785	0.00979912098418
0.0317914	0.911570021945	0.0106391861553
0.0326069	0.906279452568	0.0115532247283
0.0334434	0.900695300412	0.0125479258164
0.0343012	0.894800445675	0.0136306204401
0.0351811	0.888590776047	0.014809091506
0.0360836	0.88199385378	0.0160930120186
0.0370092	0.875017485796	0.0174916101895
0.0379586	0.86771049766	0.0190139191361
0.0389323	0.8598842567	0.0206750616747
0.039931	0.85163227219	0.0224852567838
0.0409553	0.842939281754	0.0244579753393
0.0420059	0.833686441283	0.0266111504741
0.0430834	0.823879200476	0.028960920954
0.0441886	0.813489867687	0.0315259591115
0.0453221	0.802365825763	0.0343321111636
0.0464847	0.790357880431	0.0374093433969
0.0476771	0.778101899087	0.0407516145356
0.0489001	0.764504268881	0.0444416965555
0.0501545	0.750438111781	0.0484640011851
0.0514411	0.735432169299	0.0528797081069
0.0527606	0.718812779472	0.0577834939477
0.054114	0.70128645155	0.0631765225482
0.0555022	0.682442303742	0.0691529067485
0.0569259	0.661840762094	0.0758382566546
0.0583862	0.639452217541	0.0833546141481
0.0598839	0.614943018287	0.0919055950594
0.06142	0.587620416932	0.10182246424
0.0629956	0.556555137254	0.113906436062
0.0646115	0.52032588856	0.131145605748
0.0662689	0.4827245235	0.158522123004
0.0679688	0.452273769548	0.193998870031
0.0697124	0.428915562067	0.227187478749
0.0715006	0.403159295314	0.257344104092
0.0733348	0.372925135854	0.290679334672
0.0752159	0.341435336636	0.330766832877
0.0771454	0.311983742908	0.378038972818
0.0791243	0.287394808292	0.430921893429
0.081154	0.269040998927	0.487148667931
0.0832357	0.256209629943	0.543049337038
0.0853709	0.245881838902	0.59822412162
0.0875608	0.236497358668	0.653221473378
0.0898069	0.226558341748	0.711036793212
0.0921107	0.219999187451	0.774836916456
0.0944735	0.220997202329	0.841268978792
0.0968969	0.228428117691	0.905830276348
0.0993825	0.23917048659	0.967833216723
0.101932	0.251550945916	1.02826389128
0.104547	0.265332967345	1.08843523013
0.107228	0.28101233026	1.14923323584
0.109979	0.299493720276	1.21142239225
0.1128	0.323058672545	1.27526970896
0.115694	0.356205539925	1.33818653832
0.118662	0.399331951228	1.38913071359
0.121705	0.435571752094	1.42092012682
0.124827	0.451147053003	1.45179650688
0.128029	0.459654215009	1.49793674401
0.131314	0.47475355237	1.55305354313
0.134682	0.49590005668	1.60880177766
0.138137	0.520120305144	1.66316757916
0.14168	0.544702653437	1.71473120807
0.145315	0.564513993963	1.76680915637
0.149042	0.584441652187	1.82737053045
0.152866	0.614025111013	1.88965798333
0.156787	0.645745632132	1.94214939529
0.160809	0.664144245908	1.99127854795
0.164934	0.672611564876	2.0558397724
0.169165	0.688375671753	2.13678299443
0.173504	0.715682660696	2.22336901626
0.177955	0.750206061269	2.31125362444
0.18252	0.790508525059	2.40277831029
0.187202	0.839268337335	2.49558876418
0.192004	0.892816788463	2.58834219556
0.196929	0.951004315576	2.68363043166
0.201981	1.01549275438	2.78220523609
0.207162	1.0879869133	2.88382968094
0.212476	1.17030839601	2.98763552542
0.217926	1.26490519773	3.09153062185
0.223517	1.37392799711	3.1892930715
0.22925	1.49113954689	3.26930167019
0.235131	1.59380612359	3.32901022103
0.241163	1.66096751118	3.39378718039
0.247349	1.70150259795	3.50046816335
0.253694	1.74247739152	3.66860562077
0.260202	1.80900726254	3.91444427809
0.266876	1.95874688426	4.26512843841
0.273722	2.3122183019	4.68573321712
0.280744	2.94630635396	5.00152618294
0.287945	3.74677960253	4.99253931277
0.295332	4.42448704342	4.6143850623
0.302907	4.78577877576	4.09249110409
0.310678	4.90507438204	3.66024578236
0.318647	4.93909968111	3.37324004686
0.326821	4.97933760694	3.19116448458
0.335205	5.05727813723	3.06754339305
0.343803	5.18280926914	2.97537860141
0.352622	5.38188507212	2.90360173376
0.361668	5.71139712846	2.78748624066
0.370945	6.19287967008	2.48343483681
0.380461	6.52154542701	1.67887525631
0.39022	6.20047022467	0.949911753065
0.40023	5.81969500942	0.643960525576
0.410497	5.54386730924	0.461913593808
0.421027	5.31023924093	0.330204738227
0.431827	5.10510743378	0.240426530616
0.442904	4.92833543635	0.182556361285
0.454266	4.77854303908	0.145922000576
0.465918	4.6522360114	0.122252244317
0.47787	4.54528269979	0.106132964005
0.490128	4.45390187102	0.0942942685289
0.502701	4.37495777263	0.084812940715
0.515596	4.30592940034	0.0765828086294
0.528822	4.24481011324	0.0690168100308
0.542388	4.19003161653	0.0618651039731
0.556301	4.14040293126	0.0550805712181
0.570571	4.09504825462	0.0487139574969
0.585207	4.05333499755	0.0428409140701
0.600219	4.0148060965	0.0375211117191
0.615616	3.97912062706	0.0327829004315
0.631408	3.94601605098	0.0286236718416
0.647605	3.91527301582	0.0250174441812
0.664217	3.88670705494	0.0219237848036
0.681255	3.86015173101	0.0192954909464
0.698731	3.83545988333	0.0170838540679
0.716655	3.81249775726	0.0152416033127
0.735038	3.79114930378	0.0137236152126
0.753893	3.77131018272	0.0124855565602
0.773232	3.75289268774	0.0114802471084
0.793067	3.73582009023	0.0106518572544
0.813411	3.72001785107	0.00992932095392
0.834276	3.70540043918	0.00922412748867
0.855677	3.69184626981	0.00844245386799
0.877627	3.67919238756	0.00751804251315
0.90014	3.66725620821	0.00644939209953
0.92323	3.65588785405	0.00530356625441
0.946913	3.64500568095	0.0041767178348
0.971203	3.63458466349	0.00315021817361
0.996116	3.62463094804	0.00227338075106
1.02167	3.61515943483	0.00156554128805
1.04788	3.60618332816	0.00102332726313
1.07476	3.59770605294	0.000629159602735
1.10233	3.5897224862	0.000359546557563
1.1306	3.58221886954	0.000191113565308
1.1596	3.57518443425	0.000101340791852
1.18935	3.56859637132	4.92025273602e-05
1.21986	3.56240986061	1.82964804765e-05
1.25115	3.55659422242	3.78621056136e-06
1.28325	3.55112555769	1.14158125328e-06
1.31616	3.5459797027	9.58415813233e-07
1.34993	3.54113018596	8.17149821959e-07
1.38455	3.53655529548	7.06530826735e-07
1.42007	3.53223703643	6.18759805647e-07
1.4565	3.52815829449	5.48330119212e-07
1.49386	3.52430405292	4.91285059306e-07
1.53218	3.52066065665	4.44735431484e-07
1.57148	3.5172149455	4.06540356269e-07
1.6118	3.51395528002	3.75092235094e-07
1.65314	3.51087046065	3.49169826754e-07
1.69555	3.50795056679	3.27835908973e-07
1.73904	3.50518595986	3.10365208176e-07
1.78365	3.50256773938	2.96192662778e-07
1.82941	3.50008766927	2.84875946344e-07
1.87633	3.49773787182	2.76067955034e-07
1.92446	3.4955110776	2.69496340079e-07
1.97383	3.49340049914	2.64948186047e-07
2.02446	3.49139996765	2.62258404675e-07
2.07639	3.48950315909	2.61300957714e-07
2.12966	3.48770458768	2.61982003085e-07
2.18429	3.48599877772	2.64234746323e-07
2.24032	3.48438082662	2.68015370677e-07
2.29779	3.48284604984	2.73299952026e-07
2.35673	3.48138987602	2.80082073399e-07
2.41718	3.48000826739	2.88371652784e-07
2.47919	3.47869713869	2.98218427761e-07
2.54279	3.47745301365	3.09628430512e-07
2.60801	3.47627216311	3.22651848175e-07
2.67491	3.47515113636	3.3735067198e-07
2.74353	3.47408708587	3.53798414455e-07
2.81391	3.47307701009	3.720800878e-07
2.88609	3.47211778332	3.92292249545e-07
2.96012	3.47120709145	4.14543063842e-07
3.03606	3.47034235626	4.38952684519e-07
3.11394	3.46952118967	4.65653574898e-07
3.19382	3.46874114276	4.94790998366e-07
3.27574	3.46800031515	5.26523475626e-07
3.35977	3.46729686507	5.61023465728e-07
3.44596	3.46662836923	5.98478176324e-07
3.53435	3.46599351625	6.39090064388e-07
3.62502	3.46539023448	6.8307799318e-07
3.718	3.46481713346	7.30677902955e-07
3.81338	3.46427263614	7.8214396047e-07
3.9112	3.46375521419	8.37749587232e-07
4.01153	3.46326346614	8.97788581574e-07
4.11443	3.46279609948	9.62576332297e-07
4.21998	3.46235195346	1.03245109427e-06
4.32823	3.46192963207	1.1077754587e-06
4.43925	3.46152823257	1.18893757081e-06
4.55313	3.46114670915	1.27635282194e-06
4.66992	3.46078382403	1.37046547462e-06
4.78972	3.46043867281	1.47179998695e-06
4.91258	3.46011041575	1.58437884355e-06
5.0386	3.4597981304	1.71505135561e-06
5.16785	3.45950089314	2.14728174186e-06
5.30042	3.45921837419	2.43298316356e-06
5.43638	3.45894910816	2.66990627197e-06
5.57583	3.45869267989	3.19671314822e-06
5.71887	3.45844880056	3.81263197867e-06
5.86557	3.45821620322	4.0734037157e-06
6.01603	3.45799410383	4.54640306656e-06
6.17035	3.45778204814	5.54552470657e-06
6.32863	3.45757956786	6.69060577704e-06
6.49097	3.45738507583	7.15742301771e-06
6.65748	3.45719445309	9.13186717145e-06
6.82826	3.45700658969	2.68316448995e-05
7.00342	3.45686714537	5.12483979019e-05
7.18307	3.456713162	3.8350850432e-05
7.36733	3.45656364	4.09668714744e-05
7.55631	3.45641250646	4.2115315467e-05
7.75015	3.45628353513	5.95537038212e-05
7.94895	3.45616354764	4.85242423476e-05
8.15286	3.4560252277	3.90087711839e-05
8.36199	3.4558786404	4.96109607381e-05
8.5765	3.45575578361	8.38299449794e-05
8.7965	3.45564937803	0.000118637189164
9.02215	3.45558843466	0.000149141071667
9.25358	3.4555266224	0.000126794932882
9.49095	3.45542230968	9.23506802917e-05
9.73442	3.45529619013	8.72056003954e-05
9.98412	3.45517488528	0.000108838352623
10.2402	3.45506570435	0.000161930118261
10.5029	3.45501760535	0.000207421635037
10.7723	3.45493410647	0.000210343560672
11.0487	3.45484761237	0.000282999487156
11.3321	3.45484764172	0.000332831527765
11.6228	3.45483886191	0.000326668124212
11.9209	3.45477095071	0.000285706260963
12.2267	3.45466430905	0.000346522347882
12.5404	3.45466623455	0.000348765500237
12.862	3.45460864393	0.000400693863326
13.192	3.45457753325	0.000433075793272
13.5304	3.45456069019	0.00050841160602
13.8775	3.45471580916	0.000470699852912
14.2334	3.45465412422	0.000242657985261
14.5986	3.45444725606	0.000240410409359
14.973	3.454312278	0.000248339068462
15.3571	3.45414323119	0.000274181096959
15.7511	3.45383858302	0.000322901610422
16.1551	3.45311259382	0.00143032445912
16.5695	3.45464823219	0.00187997632681
16.9946	3.45512317661	0.00092360028086
17.4305	3.45478624801	0.000663079819001
17.8776	3.4547271682	0.000742776479092
18.3362	3.45474084514	0.000677016494032
18.8066	3.45471473137	0.000621841334931
19.289	3.45469939854	0.000619794693696
19.7838	3.4547260411	0.000590952718008
20.2913	3.45471899891	0.000548627541474
20.8118	3.45473975012	0.000510347264244
21.3457	3.45473030964	0.000434711324329
21.8932	3.4546933947	0.000384654708678
22.4548	3.45465425152	0.000347040359745
23.0308	3.45461556309	0.000319635394365
23.6216	3.45457634433	0.000296924224622
24.2276	3.45453478177	0.000281431213929
24.8491	3.45449404673	0.000273595518219
25.4865	3.4544532327	0.000272626669784
26.1403	3.45441127878	0.000285952592212
26.8108	3.45440398708	0.000309443522454
27.4986	3.45439064874	0.000306919023607
28.2039	3.45437204307	0.000308639078174
28.9274	3.45435364958	0.000312655714762
29.6695	3.45433546641	0.000318803540233
30.4306	3.45431922836	0.00032796720976
31.2112	3.45430210958	0.000337656776575
32.0118	3.4542925223	0.00036319267553
32.8329	3.45430281292	0.00036265997069
33.6752	3.45429153879	0.000362920638938
34.539	3.45428173411	0.000368231038188
35.425	3.45427293567	0.000374621362321
36.3337	3.45426493222	0.000381407616075
37.2658	3.4542569505	0.000388394215931
38.2217	3.4542488692	0.000396516298947
39.2021	3.45424236413	0.000405038975881
40.2078	3.45423442769	0.000413262275077
41.2392	3.45422808926	0.000423673046259
42.297	3.45421973265	0.000432446070847
43.382	3.45421092829	0.000446370575042
44.4949	3.45420528669	0.000461988426661
45.6362	3.45420160838	0.000477822447647
46.8069	3.45419942048	0.000493825148864
48.0076	3.45419785224	0.000510105390869
49.2391	3.45419682853	0.000527293675831
50.5022	3.45419774844	0.000545841059347
51.7976	3.45420023993	0.00056488059248
53.1263	3.45420499108	0.000583981154142
54.4891	3.45421113508	0.000603105692996
55.8869	3.45421961016	0.000622203177163
57.3205	3.45422942628	0.000641125818621
58.7909	3.45424145621	0.000659706644228
60.299	3.45425555034	0.000677886306624
61.8458	3.45427145194	0.000696453145858
63.4322	3.45429284536	0.00071827698443
65.0594	3.45433186925	0.000734115045918
66.7283	3.45437474965	0.000720577027397
68.44	3.45438972178	0.000689662585934
70.1956	3.45438297702	0.000672391326628
71.9963	3.45437524189	0.00066771067664
73.8431	3.45436474153	0.000668168057509
75.7373	3.4543532548	0.000679342480191
77.6801	3.45434746046	0.000697011040735
79.6728	3.45434620333	0.000723501772728
81.7165	3.45436298083	0.000755181174563
83.8127	3.45439874997	0.000771259580265
85.9627	3.45443168125	0.00076283172463
88.1678	3.45444422515	0.000744129346604
90.4294	3.45444440099	0.000730122327067
92.7491	3.45443727418	0.000724583947241
95.1283	3.4544286332	0.000725442371211
97.5686	3.45442208887	0.0007303345538
100.071	3.45441465704	0.000737862235953
102.638	3.45441003829	0.000747278395237
105.271	3.45440622819	0.000758151137209
107.972	3.45440245878	0.000770202289149
110.741	3.45439994236	0.000783244641818
113.582	3.45439433983	0.000797152796173
116.496	3.45439108731	0.000811837193782
119.484	3.45439111021	0.000827230753747
122.549	3.45438719603	0.000843279355524
125.693	3.45438677007	0.000859930780421
128.917	3.45438597654	0.000877140755878
132.224	3.45438388401	0.000894877751083
135.616	3.4543834112	0.000913139414302
139.094	3.45438135576	0.00093197079143
142.663	3.45437850677	0.000951459716567
146.322	3.45438142845	0.000971709180423
150.076	3.45437265903	0.000992806901669
153.925	3.45438137191	0.00101477895457
157.874	3.45436976845	0.00103762234584
161.923	3.45438083435	0.00106128209876
166.077	3.45437545216	0.00108572385367
170.337	3.45437047598	0.00111090812636
174.707	3.45437246725	0.00113681490554
179.188	3.4543703768	0.00116344418712
183.785	3.45436896923	0.00119080054025
188.499	3.45437225789	0.00121889430396
193.335	3.454374074	0.00124774240586
198.294	3.45436801599	0.00127736371729
203.381	3.45435963294	0.00130777382401
208.598	3.45436398927	0.00133898518531
213.949	3.45436345545	0.00137102333712
219.437	3.45438485391	0.00140389702269
225.066	3.45437008085	0.00143764989363
230.839	3.45436293081	0.00147228506454
236.761	3.4543510969	0.00150782898739
242.834	3.4543753577	0.00154428549072
249.063	3.45435204691	0.00158171423893
255.452	3.45438141187	0.00162009292929
262.005	3.45437558996	0.00165948578707
268.726	3.45437959447	0.00169989634012
275.619	3.45440245359	0.00174134485536
282.69	3.45437072691	0.00178389444663
289.941	3.45436543058	0.00182753093598
297.379	3.45437565563	0.00187228664848
305.007	3.45435983317	0.00191821225822
