Material: main / Si / Franta-400K
Optical constants. D. Franta, A. Dubroka, C. Wang, A. Giglia, J. Vohánka, P. Franta, I. Ohlídal. Temperature-dependent dispersion model of float zone crystalline silicon, Appl. Surf. Sci. 421, 405-419 (2017) (Numerical data kindly provided by Daniel Franta)
Comments: Float zone c-Si; Heterogenous data processing combining ellipsometric and spectrophotometric measurements with refractive index determined in B. J. Frey, D. B. Leviton, T. J. Madison. Temperature-dependent refractive index of silicon and germanium, Proc. SPIE 6273, 62732J (2006). Numerical procedures updated in D. Franta, P. Franta, J. Vohánka, M. Čermák, I. Ohlídal. Determination of thicknesses and temperatures of crystalline silicon wafers from optical measurements in the far infrared region, J. Appl. Phys. 123, 185707 (2018). Temperature 400 K."
Conditions: {"temperature": 400}
wavelength (um)	n	k
0.0309963	0.916570872253	0.0101333490984
0.0317914	0.911566155836	0.0110013263838
0.0326069	0.906285904715	0.0119454806524
0.0334434	0.900708134287	0.0129727450041
0.0343012	0.894828345327	0.0140904191771
0.0351811	0.888625579728	0.0153066817912
0.0360836	0.882057556514	0.0166308508028
0.0370092	0.875140485104	0.0180719873115
0.0379586	0.86779054653	0.0196420071145
0.0389323	0.860067345745	0.0213507271478
0.039931	0.851848661109	0.0232132026847
0.0409553	0.84315738223	0.0252422574677
0.0420059	0.833984382471	0.0274525143284
0.0430834	0.824240422071	0.0298626248878
0.0441886	0.813907797096	0.0324907391007
0.0453221	0.802914410733	0.0353589573845
0.0464847	0.79133998965	0.0384846662175
0.0476771	0.779115059055	0.0418932423797
0.0489001	0.766066116361	0.0456192335204
0.0501545	0.751677488062	0.0497259850546
0.0514411	0.736533244774	0.054213824663
0.0527606	0.720738500948	0.0591085212792
0.054114	0.703628784163	0.0645052585515
0.0555022	0.684867037427	0.0704973203432
0.0569259	0.664973017035	0.0771052957873
0.0583862	0.643031316282	0.0845309850566
0.0598839	0.618984648437	0.0929320325515
0.06142	0.592267571958	0.10259652465
0.0629956	0.561670177399	0.11432190244
0.0646115	0.52635313276	0.130822430153
0.0662689	0.48963568264	0.156987344598
0.0679688	0.45940702781	0.1912376594
0.0697124	0.435790544359	0.223503668658
0.0715006	0.410255649752	0.252221826571
0.0733348	0.379876723188	0.283708950525
0.0752159	0.347552644791	0.321876987402
0.0771454	0.316327273846	0.367867142003
0.0791243	0.289603982523	0.420222900032
0.081154	0.269509016883	0.47619205454
0.0832357	0.255226629989	0.532605044382
0.0853709	0.243929457837	0.588293681683
0.0875608	0.233817604881	0.643463874083
0.0898069	0.222910204726	0.70102894229
0.0921107	0.214840821181	0.764928774371
0.0944735	0.214242288351	0.831809179597
0.0968969	0.2202085541	0.897241349288
0.0993825	0.229641762606	0.96027357089
0.101932	0.240796350658	1.02183995064
0.104547	0.253324578679	1.08358260749
0.107228	0.267774968812	1.14627049173
0.109979	0.285150260945	1.21081164733
0.1128	0.307971533025	1.27802212012
0.115694	0.341482123418	1.34534448683
0.118662	0.387349358555	1.40119422679
0.121705	0.429152673519	1.4363404055
0.124827	0.451604286642	1.46724555982
0.128029	0.465596550547	1.50992167823
0.131314	0.483572430625	1.56033024136
0.134682	0.505521504627	1.61134167515
0.138137	0.528941461675	1.66153033301
0.14168	0.551864995747	1.70982980188
0.145315	0.569485035497	1.75899007479
0.149042	0.586001453863	1.81725694057
0.152866	0.611633951817	1.8788676492
0.156787	0.639998113606	1.93176283372
0.160809	0.65515461198	1.98116124345
0.164934	0.658767741949	2.04673115022
0.169165	0.668971758301	2.13240459811
0.173504	0.69504990824	2.22773585487
0.177955	0.73432619988	2.32131109932
0.18252	0.778511367437	2.41487670382
0.187202	0.831426228013	2.50739409219
0.192004	0.886512890477	2.59868779994
0.196929	0.944991919975	2.69269170185
0.201981	1.00852461508	2.79021643355
0.207162	1.07858013972	2.89153847749
0.212476	1.15670884135	2.99700198648
0.217926	1.24633154364	3.10758623651
0.223517	1.35752415171	3.2195578102
0.22925	1.4940640338	3.30672122355
0.235131	1.61121269894	3.34644088447
0.241163	1.65908671476	3.39159260169
0.247349	1.67419909008	3.51129960508
0.253694	1.71185148407	3.7036378839
0.260202	1.78364620625	3.96580322632
0.266876	1.93854927498	4.33528729709
0.273722	2.30772780377	4.77408327978
0.280744	2.94284774043	5.11361897814
0.287945	3.8156824163	5.18494664335
0.295332	4.64545978846	4.72076970277
0.302907	4.96434215433	4.05572124124
0.310678	5.00309166949	3.61736771516
0.318647	5.02438512874	3.35858832545
0.326821	5.07861483575	3.1782748904
0.335205	5.16000034511	3.03997390645
0.343803	5.27407275458	2.94031267922
0.352622	5.45593570397	2.90260504097
0.361668	5.91062843919	2.87086740445
0.370945	6.59195727005	2.30643383405
0.380461	6.62114074896	1.26241194706
0.39022	6.13154944456	0.688146595472
0.40023	5.74417499566	0.445067398406
0.410497	5.44277681654	0.298666451273
0.421027	5.19535570033	0.211427977759
0.431827	4.99449623355	0.159856621403
0.442904	4.83046780847	0.127294858549
0.454266	4.69396661695	0.105227352701
0.465918	4.57838436014	0.08966409954
0.47787	4.47934058139	0.0783805896772
0.490128	4.39371787321	0.0698306436171
0.502701	4.31905612524	0.0628877925664
0.515596	4.25331386413	0.056804599252
0.528822	4.19480556122	0.0511679796578
0.542388	4.14218784747	0.0458150601525
0.556301	4.09442811556	0.0407338390193
0.570571	4.05076147994	0.0359777234622
0.585207	4.0106220428	0.0316091102695
0.600219	3.97359069697	0.0276714188208
0.615616	3.93934118559	0.0241814887842
0.631408	3.90761156587	0.0211327093264
0.647605	3.87818372244	0.0185020751746
0.664217	3.85086618045	0.016257262585
0.681255	3.82549290504	0.0143620107263
0.698731	3.80191312168	0.0127795133018
0.716655	3.77999788244	0.0114737507526
0.735038	3.75963154107	0.0104089366347
0.753893	3.74071691889	0.00954684167019
0.773232	3.72316633624	0.0088419668339
0.793067	3.70690316188	0.00823533303477
0.813411	3.69184001733	0.00765095745821
0.834276	3.67786490322	0.00700401413237
0.855677	3.6648230396	0.00622937016206
0.877627	3.65254069905	0.00531953985551
0.90014	3.64086528861	0.00433503160518
0.92323	3.62971528703	0.00336848284711
0.946913	3.6190652216	0.00249786874776
0.971203	3.6089202275	0.00176667750891
0.996116	3.59929220842	0.00118773599013
1.02167	3.59018637082	0.000753377823718
1.04788	3.58159911471	0.000444985556348
1.07476	3.57351769006	0.000240541401877
1.10233	3.56592441916	0.00011938621598
1.1306	3.55880593668	6.07909320277e-05
1.1596	3.5521331592	2.77882759499e-05
1.18935	3.54586232958	9.01414629441e-06
1.21986	3.53996347252	1.12812911244e-06
1.25115	3.53441266782	2.96119878006e-07
1.28325	3.52918384615	2.29675292805e-07
1.31616	3.52425297752	1.83191362842e-07
1.34993	3.51959931381	1.49638556796e-07
1.38455	3.51520516282	1.24692689766e-07
1.42007	3.51105317618	1.05636043889e-07
1.4565	3.50712936631	9.07218122663e-08
1.49386	3.50341912243	7.88010458117e-08
1.53218	3.49990943894	6.90999016389e-08
1.57148	3.49658909603	6.10846055166e-08
1.6118	3.49344643445	5.43782169332e-08
1.65314	3.49047171899	4.87083414571e-08
1.69555	3.48765448454	4.38738203067e-08
1.73904	3.484986498	3.97230063849e-08
1.78365	3.48245922548	3.61394467717e-08
1.82941	3.48006412782	3.30321945641e-08
1.87633	3.47779492235	3.03291362059e-08
1.92446	3.47564351455	2.79723759722e-08
1.97383	3.47360441876	2.59148780498e-08
2.02446	3.47167145799	2.41180901707e-08
2.07639	3.469837677	2.25501667151e-08
2.12966	3.46809870361	2.11846166207e-08
2.18429	3.46644930542	1.99993168909e-08
2.24032	3.46488486743	1.89757232519e-08
2.29779	3.46340041143	1.80982680095e-08
2.35673	3.461991979	1.73550951417e-08
2.41718	3.46065546883	1.67388230126e-08
2.47919	3.45938718967	1.62345056438e-08
2.54279	3.45818326599	1.58348002197e-08
2.60801	3.45704047786	1.55336543161e-08
2.67491	3.45595578751	1.53261613526e-08
2.74353	3.454926097	1.52084396999e-08
2.81391	3.45394830638	1.51775313389e-08
2.88609	3.45301993441	1.52313156964e-08
2.96012	3.45213859017	1.53684433929e-08
3.03606	3.45130145371	1.55882826782e-08
3.11394	3.4505065201	1.58908689306e-08
3.19382	3.44975150065	1.62768739809e-08
3.27574	3.44903429993	1.67475766268e-08
3.35977	3.44835318835	1.73048415356e-08
3.44596	3.44770620517	1.79511082723e-08
3.53435	3.44709164769	1.86893807535e-08
3.62502	3.44650766149	1.9523226287e-08
3.718	3.44595278065	2.0456774164e-08
3.81338	3.44542563881	2.1494722746e-08
3.9112	3.44492491354	2.26423493162e-08
4.01153	3.444448999	2.39055255037e-08
4.11443	3.44399674643	2.52907290096e-08
4.21998	3.44356698014	2.68050662447e-08
4.32823	3.44315844065	2.84562955745e-08
4.43925	3.44277005702	3.02528507194e-08
4.55313	3.44240084562	3.22038694959e-08
4.66992	3.44204983407	3.43192289206e-08
4.78972	3.44171626742	3.67263464233e-08
4.91258	3.44139895764	4.25854799475e-08
5.0386	3.44109700906	6.33590140453e-08
5.16785	3.44081004364	3.06453705006e-07
5.30042	3.44053701301	3.78946196818e-07
5.43638	3.44027716718	4.57363424162e-07
5.57583	3.44002972015	7.4314845044e-07
5.71887	3.43979453523	9.96143318077e-07
5.86557	3.43957044448	1.04425361488e-06
6.01603	3.43935644903	1.27590769378e-06
6.17035	3.43915245591	1.82320849979e-06
6.32863	3.43895781337	2.37297188795e-06
6.49097	3.43877091175	2.5363319679e-06
6.65748	3.43858811954	4.70769414972e-06
6.82826	3.43841227763	2.2294106911e-05
7.00342	3.43827696504	3.28441724489e-05
7.18307	3.43812477915	2.58837573512e-05
7.36733	3.43798220931	2.65727804659e-05
7.55631	3.43783785337	2.99844750964e-05
7.75015	3.43771663627	3.99994181201e-05
7.94895	3.43759566877	2.96061871616e-05
8.15286	3.43746453955	2.39421128972e-05
8.36199	3.43733109808	3.59099631645e-05
8.5765	3.43721954954	5.98883341401e-05
8.7965	3.43711978064	8.69806434376e-05
9.02215	3.4370547023	0.000100964336179
9.25358	3.4369811533	8.03727412442e-05
9.49095	3.43687769607	5.73718593961e-05
9.73442	3.43676098969	5.73337878537e-05
9.98412	3.43665059151	8.18583307293e-05
10.2402	3.43656109712	0.000131459486276
10.5029	3.43651495562	0.000157577159028
10.7723	3.43643034524	0.000167882729981
11.0487	3.43636675779	0.000232927717506
11.3321	3.43636484256	0.000261681606107
11.6228	3.43635454095	0.000242423852082
11.9209	3.43627692586	0.000200736262983
12.2267	3.43619645054	0.000266962105777
12.5404	3.43616459083	0.000240185995088
12.862	3.43612032082	0.000289688394822
13.192	3.43608368549	0.000320017289722
13.5304	3.43607960688	0.00040411242975
13.8775	3.43619987967	0.000324184470112
14.2334	3.43609745964	0.000146474534528
14.5986	3.43594754599	0.000162272739307
14.973	3.43582753135	0.000170635277658
15.3571	3.43568153279	0.000192317893615
15.7511	3.43539602318	0.000240138081915
16.1551	3.43515956011	0.00135554551015
16.5695	3.4362773042	0.00138027151307
16.9946	3.43642073659	0.000621645588557
17.4305	3.43616885604	0.000491574377255
17.8776	3.436164318	0.000538961149435
18.3362	3.43616547395	0.000485815158563
18.8066	3.43613966233	0.000442116967036
19.289	3.43613069818	0.00043078704308
19.7838	3.43613935145	0.000400928977866
20.2913	3.43613222147	0.00037224098479
20.8118	3.43614522643	0.000331662047793
21.3457	3.43612615016	0.000272142749187
21.8932	3.43609389067	0.000233546846225
22.4548	3.43606057403	0.000204676195005
23.0308	3.4360290485	0.000181419263705
23.6216	3.43599571877	0.000161729387814
24.2276	3.4359611664	0.000148390642037
24.8491	3.43592775818	0.000140702084267
25.4865	3.43589428534	0.00013852625311
26.1403	3.43586140044	0.000150838853921
26.8108	3.4358589682	0.000161033708388
27.4986	3.43584586214	0.000156236110965
28.2039	3.43583074779	0.000154565936399
28.9274	3.43581564842	0.000154457954815
29.6695	3.43580078037	0.000156030551186
30.4306	3.43578794115	0.000159503452936
31.2112	3.43577356391	0.000164371478518
32.0118	3.43577070774	0.000180948084378
32.8329	3.43577415573	0.000172683182132
33.6752	3.43576519405	0.000170048234256
34.539	3.43575748157	0.000170081744009
35.425	3.43575048828	0.000170669987159
36.3337	3.43574405453	0.000171393733415
37.2658	3.43573766673	0.000172167765535
38.2217	3.43573114097	0.000173887083069
39.2021	3.43572609256	0.000175353666993
40.2078	3.43571958767	0.000177020502529
41.2392	3.43571484616	0.000179559354166
42.297	3.43570775366	0.000181520436399
43.382	3.43570151995	0.000187282501586
44.4949	3.43569740826	0.000193768684117
45.6362	3.43569460322	0.000200256477568
46.8069	3.43569300388	0.000206736003386
48.0076	3.43569194404	0.000213333568767
49.2391	3.43569110533	0.000220638814232
50.5022	3.43569203761	0.000228802908132
51.7976	3.43569422098	0.000237095608644
53.1263	3.43569815996	0.000245267434655
54.4891	3.43570310409	0.000253297722034
55.8869	3.43570995101	0.000261131280734
57.3205	3.43571771653	0.000268641697196
58.7909	3.4357272271	0.000275703207865
60.299	3.43573844349	0.000282304486832
61.8458	3.43575124234	0.00028934207696
63.4322	3.43576915665	0.000298812843227
65.0594	3.43580176638	0.000300219437837
66.7283	3.43583264953	0.000277623783272
68.44	3.43583979449	0.00024587008701
70.1956	3.43583388514	0.000226733640875
71.9963	3.43582813423	0.000214885994063
73.8431	3.43581966375	0.000207511045874
75.7373	3.4358114048	0.000207908096099
77.6801	3.43580735153	0.000212810138358
79.6728	3.43580762733	0.000224754048822
81.7165	3.43582311005	0.000238340565736
83.8127	3.43585109936	0.000237338477102
85.9627	3.43587414208	0.000218555819471
88.1678	3.43588045663	0.000194343395796
90.4294	3.43587972075	0.000174596265399
92.7491	3.43587385792	0.000160860614227
95.1283	3.43586723972	0.000151306138385
97.5686	3.4358626345	0.000144272556568
100.071	3.43585685714	0.000138819651455
102.638	3.43585382637	0.000134439704942
105.271	3.43585124062	0.00013082889906
107.972	3.43584855575	0.000127786036341
110.741	3.43584706011	0.00012517300497
113.582	3.43584228564	0.000122893783455
116.496	3.43583963705	0.00012087774745
119.484	3.43584039622	0.000119068586075
122.549	3.43583686965	0.000117417315769
125.693	3.4358370518	0.000115877838856
128.917	3.43583664949	0.000114408599739
132.224	3.43583511848	0.000112979352606
135.616	3.43583491474	0.00011158442711
139.094	3.4358331965	0.000110253520949
142.663	3.43583067787	0.000109046809481
146.322	3.43583410162	0.00010803183006
150.076	3.43582567076	0.000107255401748
153.925	3.43583481183	0.000106724584471
157.874	3.43582362951	0.000106413708794
161.923	3.43583503897	0.000106276620763
166.077	3.43583005417	0.000106269340088
170.337	3.4358250448	0.0001063560833
174.707	3.43582731911	0.00010651352192
179.188	3.43582549999	0.000106728718118
183.785	3.43582406774	0.000106994528549
188.499	3.43582736428	0.000107307245288
193.335	3.43582934952	0.000107665154231
198.294	3.43582340031	0.000108067322678
203.381	3.43581483741	0.000108512795443
208.598	3.43581945497	0.000109000467587
213.949	3.43581873993	0.00010953043726
219.437	3.43584034662	0.000110101422315
225.066	3.43582546773	0.0001107149747
230.839	3.43581805522	0.000111369410567
236.761	3.43580635507	0.000112064871377
242.834	3.43583030577	0.000112799847073
249.063	3.43580698332	0.000113576888452
255.452	3.43583622579	0.000114392575285
262.005	3.43583040791	0.000115249721322
268.726	3.43583429081	0.000116146800818
275.619	3.43585714303	0.000117083506079
282.69	3.4358249326	0.000118062443007
289.941	3.43581946267	0.000119080972796
297.379	3.43582966164	0.000120139683162
305.007	3.43581350187	0.000121240346441
