Material: main / Si / Franta-100K
Optical constants. D. Franta, A. Dubroka, C. Wang, A. Giglia, J. Vohánka, P. Franta, I. Ohlídal. Temperature-dependent dispersion model of float zone crystalline silicon, Appl. Surf. Sci. 421, 405-419 (2017) (Numerical data kindly provided by Daniel Franta)
Comments: Float zone c-Si; Heterogenous data processing combining ellipsometric and spectrophotometric measurements with refractive index determined in B. J. Frey, D. B. Leviton, T. J. Madison. Temperature-dependent refractive index of silicon and germanium, Proc. SPIE 6273, 62732J (2006). Numerical procedures updated in D. Franta, P. Franta, J. Vohánka, M. Čermák, I. Ohlídal. Determination of thicknesses and temperatures of crystalline silicon wafers from optical measurements in the far infrared region, J. Appl. Phys. 123, 185707 (2018). Temperature 100 K."
Conditions: {"temperature": 100}
wavelength (um)	n	k
0.0309963	0.916937066749	0.0110675102196
0.0317914	0.911990727953	0.0120122636824
0.0326069	0.906777390165	0.0130389940078
0.0334434	0.901282757645	0.0141548201752
0.0343012	0.895502502098	0.0153672647994
0.0351811	0.889392641473	0.0166851370612
0.0360836	0.882951524047	0.0181172127776
0.0370092	0.876151335229	0.0196734392858
0.0379586	0.868980593902	0.0213641689612
0.0389323	0.861412515983	0.0232008638334
0.039931	0.853414395496	0.0251960187489
0.0409553	0.844971489919	0.0273625023988
0.0420059	0.836056880606	0.0297143849258
0.0430834	0.826622634098	0.0322674701557
0.0441886	0.816638797491	0.0350380281553
0.0453221	0.806086409079	0.0380428123435
0.0464847	0.794900796734	0.0413017368359
0.0476771	0.783043215548	0.0448349071539
0.0489001	0.77045553617	0.0486648871004
0.0501545	0.757070876491	0.0528166331869
0.0514411	0.742807479854	0.0573184961194
0.0527606	0.727599490681	0.0622005701431
0.054114	0.711301962972	0.067503619364
0.0555022	0.693795957451	0.0732729221139
0.0569259	0.674898749583	0.0795695034909
0.0583862	0.654361806473	0.0864851378526
0.0598839	0.631862235102	0.0941460771257
0.06142	0.606859846815	0.102762692294
0.0629956	0.57832207772	0.112958929115
0.0646115	0.54505904773	0.127176878013
0.0662689	0.509633077857	0.150089634542
0.0679688	0.480065521135	0.180440899714
0.0697124	0.456745278023	0.208694558388
0.0715006	0.430933736817	0.232897567472
0.0733348	0.398970730077	0.259123240434
0.0752159	0.362971604136	0.292027184747
0.0771454	0.326359179544	0.333496895976
0.0791243	0.292869740833	0.383515640227
0.081154	0.265790413866	0.439659396329
0.0832357	0.245351930711	0.497700141609
0.0853709	0.228836419421	0.556120222918
0.0875608	0.214782200986	0.615019261048
0.0898069	0.201149527687	0.676636465855
0.0921107	0.191381097584	0.744242962365
0.0944735	0.189867365604	0.814732898478
0.0968969	0.195534027561	0.883425931584
0.0993825	0.205084854643	0.949199179869
0.101932	0.216605977882	1.01321763688
0.104547	0.229783020506	1.07687027898
0.107228	0.245109904003	1.1410542586
0.109979	0.263486581352	1.2063937796
0.1128	0.286982985337	1.27329278791
0.115694	0.319899867141	1.33939048158
0.118662	0.363350414249	1.39418546205
0.121705	0.40052186181	1.42920887294
0.124827	0.417952603768	1.46432252545
0.128029	0.428890904981	1.51188649545
0.131314	0.444869130708	1.56888082491
0.134682	0.467132607539	1.62703298645
0.138137	0.492700321813	1.68391103938
0.14168	0.519255855012	1.7381634979
0.145315	0.541731143258	1.79192626287
0.149042	0.563150675246	1.85342731498
0.152866	0.593718797037	1.91797121713
0.156787	0.628173879724	1.9734028125
0.160809	0.650725851628	2.02318759985
0.164934	0.660995787881	2.08611517697
0.169165	0.675642054084	2.16664003704
0.173504	0.70070611788	2.25589379476
0.177955	0.735130987951	2.34929717526
0.18252	0.775604020688	2.4493511211
0.187202	0.83687743677	2.54714568532
0.192004	0.897997316201	2.63854251178
0.196929	0.961542444814	2.7306762933
0.201981	1.02847115336	2.82502744389
0.207162	1.0996301903	2.92268782811
0.212476	1.17572317361	3.02516670059
0.217926	1.25768130198	3.13714433524
0.223517	1.36434873474	3.27520346404
0.22925	1.56694905319	3.3747836284
0.235131	1.68772132905	3.30678046165
0.241163	1.62574149805	3.35447385796
0.247349	1.61796785839	3.54029905667
0.253694	1.65065950827	3.76696512867
0.260202	1.69158453761	4.08715379882
0.266876	1.86121264302	4.6105824923
0.273722	2.44946126227	5.18215970666
0.280744	3.30601128645	5.40001746435
0.287945	4.46429267087	5.32137075815
0.295332	5.06504456903	4.35463719686
0.302907	5.06292702659	3.75728374644
0.310678	5.02746867895	3.46222949777
0.318647	5.0628789112	3.28490643483
0.326821	5.14172305741	3.14643541789
0.335205	5.24696432258	3.04642593711
0.343803	5.3974732957	3.02211804841
0.352622	5.78609852049	3.16287016461
0.361668	6.96249103273	2.70303822093
0.370945	7.06151507007	1.24914367718
0.380461	6.34361881652	0.454561374653
0.39022	5.78106124094	0.249061501733
0.40023	5.42485879434	0.173568787236
0.410497	5.16898070261	0.123707840986
0.421027	4.96477330565	0.0881298952485
0.431827	4.79556516597	0.0646967759232
0.442904	4.65359832573	0.0503855523642
0.454266	4.53373979274	0.0420957543967
0.465918	4.43188119108	0.0372957327374
0.47787	4.34455211176	0.0342070392612
0.490128	4.26884685412	0.0317428405629
0.502701	4.20240571693	0.0293511837388
0.515596	4.14338156627	0.0268396386566
0.528822	4.09037732051	0.0242187292421
0.542388	4.04236129791	0.0215839581831
0.556301	3.99857648625	0.0190424586215
0.570571	3.95845942357	0.016677984635
0.585207	3.92157743688	0.0145415019921
0.600219	3.88758505697	0.0126549007495
0.615616	3.85619602308	0.011019167905
0.631408	3.82716637526	0.00962243863796
0.647605	3.80028438522	0.00844616549661
0.664217	3.77536466522	0.00746909622925
0.681255	3.75224470474	0.00666926339685
0.698731	3.73078268858	0.00602418501131
0.716655	3.71085569498	0.00550925441441
0.735038	3.69235714105	0.00509416317929
0.753893	3.67519113842	0.00473779404939
0.773232	3.65926068672	0.00438461081516
0.793067	3.64444967744	0.00397067974578
0.813411	3.63060998389	0.00344874345475
0.834276	3.61757760497	0.00282370761778
0.855677	3.6052205929	0.00216079586227
0.877627	3.59347455045	0.00154583359731
0.90014	3.58232928234	0.00103701672346
0.92323	3.57179088737	0.000650935230685
0.946913	3.56185682112	0.000376662221579
0.971203	3.55251083876	0.000193320840448
0.996116	3.54372720858	8.02608163006e-05
1.02167	3.53547639225	2.06932889453e-05
1.04788	3.52773083098	1.87925452082e-06
1.07476	3.52046702225	7.92140188076e-07
1.10233	3.51363902051	3.47014322874e-07
1.1306	3.5072107596	1.36007834958e-07
1.1596	3.50115320464	6.55387240869e-08
1.18935	3.49544083551	3.5445627712e-08
1.21986	3.49005071955	1.94922127078e-08
1.25115	3.4849620626	1.08947489827e-08
1.28325	3.48015579283	6.1866915432e-09
1.31616	3.47561438952	3.56792224525e-09
1.34993	3.47132165756	2.0889136847e-09
1.38455	3.46726261129	1.2410999006e-09
1.42007	3.46342331383	7.48006104152e-10
1.4565	3.45979083457	4.57131631326e-10
1.49386	3.45635309372	2.83158747478e-10
1.53218	3.45309884638	1.7769184794e-10
1.57148	3.45001757102	1.12906722483e-10
1.6118	3.44709943952	7.25947760357e-11
1.65314	3.44433525444	4.71921680333e-11
1.69555	3.44171637933	3.09848197017e-11
1.73904	3.43923473533	2.05168942653e-11
1.78365	3.43688272986	1.36733306458e-11
1.82941	3.4346532358	9.14455865291e-12
1.87633	3.4325395447	6.11051364443e-12
1.92446	3.43053536605	4.05196235102e-12
1.97383	3.4286347722	2.63658321519e-12
2.02446	3.4268321721	1.64943056506e-12
2.07639	3.42512231103	9.50037782681e-13
2.12966	3.42350024194	4.456788756e-13
2.18429	3.42196128068	7.4532749337e-14
2.24032	3.42050102893	2.9464707349e-14
2.29779	3.41911532178	2.35284837119e-14
2.35673	3.41780023889	1.88789275507e-14
2.41718	3.41655206996	1.5220094469e-14
2.47919	3.41536731733	1.23276165267e-14
2.54279	3.41424266687	1.00306199334e-14
2.60801	3.41317498935	8.19838991012e-15
2.67491	3.41216133427	6.73049297886e-15
2.74353	3.41119889251	5.5494282054e-15
2.81391	3.41028503096	4.59513621183e-15
2.88609	3.40941722842	3.82087908022e-15
2.96012	3.40859313038	3.1901356968e-15
3.03606	3.40781049419	2.6742527895e-15
3.11394	3.40706717884	2.25066040243e-15
3.19382	3.40636117842	1.90151072535e-15
3.27574	3.40569058935	1.61263580189e-15
3.35977	3.40505360349	1.37274630247e-15
3.44596	3.40444850984	1.17281321738e-15
3.53435	3.40387368003	1.00558895015e-15
3.62502	3.4033275826	8.65234982789e-16
3.718	3.40280875618	7.47031378828e-16
3.81338	3.40231581669	6.47149274959e-16
3.9112	3.40184745123	5.6247212158e-16
4.01153	3.40140242028	4.90454709524e-16
4.11443	3.40097953649	4.29011632645e-16
4.21998	3.40057767847	3.76428737389e-16
4.32823	3.40019579134	3.31292589318e-16
4.43925	3.39983285719	2.92434117797e-16
4.55313	3.39948792024	2.58884368956e-16
4.66992	3.39916006728	4.77475200522e-14
4.78972	3.39884842526	2.10864583154e-10
4.91258	3.39855216763	2.39341843315e-09
5.0386	3.39827048775	2.55464428222e-08
5.16785	3.39800275326	1.35293774142e-07
5.30042	3.39774819644	1.52774288849e-07
5.43638	3.39750606128	1.94364546469e-07
5.57583	3.39727579898	3.17793639161e-07
5.71887	3.39705683808	3.75175134899e-07
5.86557	3.39684839457	3.84433262371e-07
6.01603	3.39664990435	4.81386646301e-07
6.17035	3.39646089004	6.63236967566e-07
6.32863	3.39628068757	7.876947087e-07
6.49097	3.39610791848	9.97318614417e-07
6.65748	3.39594057285	3.36176743944e-06
6.82826	3.39578448201	1.66536373465e-05
7.00342	3.39565109295	1.59637784028e-05
7.18307	3.39551038722	1.42568410035e-05
7.36733	3.39537827278	1.33426961842e-05
7.55631	3.39524871368	1.71357839025e-05
7.75015	3.39513476444	1.92893135803e-05
7.94895	3.39501969313	1.40418372932e-05
8.15286	3.39490425361	1.29441933448e-05
8.36199	3.39479321064	1.99567602617e-05
8.5765	3.39469402867	2.89797541897e-05
8.7965	3.39460303619	4.06790108308e-05
9.02215	3.39452669156	4.28143265223e-05
9.25358	3.39444580156	3.11935341857e-05
9.49095	3.39435187544	2.16778005295e-05
9.73442	3.39425073308	2.76693658769e-05
9.98412	3.3941623203	5.45868594841e-05
10.2402	3.39409936117	8.68553419207e-05
10.5029	3.39404983068	9.5969512415e-05
10.7723	3.39398126504	0.000112069518778
11.0487	3.39394036868	0.000150556372632
11.3321	3.39393185752	0.000157607275148
11.6228	3.39391267573	0.000123400601135
11.9209	3.39382885175	8.88308060045e-05
12.2267	3.39378910519	0.000132627869514
12.5404	3.39372409211	0.000110394330108
12.862	3.39368500448	0.000130811781089
13.192	3.39364323699	0.000153712499177
13.5304	3.39366024577	0.000210797381208
13.8775	3.39369536443	0.000134052633137
14.2334	3.39359822342	5.30017361897e-05
14.5986	3.39352160893	6.3797558353e-05
14.973	3.39345151272	7.0568147816e-05
15.3571	3.39337049443	8.04199701624e-05
15.7511	3.39320459511	0.000101428798128
16.1551	3.39325090993	0.000600389059375
16.5695	3.39368847246	0.000431464072882
16.9946	3.39359250549	0.000198047037296
17.4305	3.39348782656	0.000189553178343
17.8776	3.39349701344	0.000191939655203
18.3362	3.393480669	0.000166838241344
18.8066	3.39345695972	0.000148871736178
19.289	3.39343774831	0.000138752987074
19.7838	3.39342462417	0.000128440559873
20.2913	3.3934126493	0.000117156244463
20.8118	3.39340250548	9.87757511202e-05
21.3457	3.39338061725	7.83521099756e-05
21.8932	3.39335835669	6.78382638825e-05
22.4548	3.39333865047	5.78075795411e-05
23.0308	3.39331765507	4.88023655233e-05
23.6216	3.39329650154	4.27231330548e-05
24.2276	3.39327645249	3.91957644206e-05
24.8491	3.39325786415	3.73134190985e-05
25.4865	3.39323995444	3.7041794512e-05
26.1403	3.39322441669	4.29311257943e-05
26.8108	3.39321844413	4.25558471112e-05
27.4986	3.39320793445	3.99214898722e-05
28.2039	3.39319727337	3.82011267573e-05
28.9274	3.39318705488	3.69134254763e-05
29.6695	3.39317724515	3.60283754502e-05
30.4306	3.39316819528	3.53572950988e-05
31.2112	3.39315918686	3.52077033185e-05
32.0118	3.39315272016	3.58257037941e-05
32.8329	3.39314592778	3.39779417979e-05
33.6752	3.39313881499	3.30352098763e-05
34.539	3.39313214345	3.22936127227e-05
35.425	3.39312575595	3.16051943123e-05
36.3337	3.39311992338	3.09325701728e-05
37.2658	3.39311414162	3.02881990636e-05
38.2217	3.39310874952	2.97953443973e-05
39.2021	3.39310377266	2.91785413798e-05
40.2078	3.39309885615	2.86683468219e-05
41.2392	3.39309428388	2.81027232277e-05
42.297	3.39308966263	2.76129008971e-05
43.382	3.39308540852	2.7384726184e-05
44.4949	3.39308136917	2.71706919106e-05
45.6362	3.39307755304	2.69497961167e-05
46.8069	3.39307402112	2.67347973369e-05
48.0076	3.39307051025	2.65880457195e-05
49.2391	3.39306694749	2.67012755995e-05
50.5022	3.39306405246	2.70299213346e-05
51.7976	3.39306118219	2.738364851e-05
53.1263	3.39305889705	2.77253650442e-05
54.4891	3.39305661106	2.80540070593e-05
55.8869	3.3930549269	2.83647666938e-05
57.3205	3.39305303576	2.86481046004e-05
58.7909	3.3930515952	2.88963565224e-05
60.299	3.39305048351	2.91169740971e-05
61.8458	3.39304941652	2.94299289452e-05
63.4322	3.39304862895	2.99766585517e-05
65.0594	3.39304934507	2.96685613029e-05
66.7283	3.39304984204	2.753291313e-05
68.44	3.39304809091	2.50794162457e-05
70.1956	3.39304664187	2.37440420964e-05
71.9963	3.39304469336	2.26840609702e-05
73.8431	3.39304310203	2.18583991054e-05
75.7373	3.39304043707	2.15185201026e-05
77.6801	3.3930394115	2.1502455649e-05
79.6728	3.39303775337	2.18003315455e-05
81.7165	3.39303701336	2.20758406551e-05
83.8127	3.39303707433	2.18387786586e-05
85.9627	3.39303736212	2.11375522377e-05
88.1678	3.39303519137	2.03801772658e-05
90.4294	3.39303543252	1.98012222925e-05
92.7491	3.39303420364	1.94033600616e-05
95.1283	3.39303227453	1.9124363341e-05
97.5686	3.39303190178	1.89179557223e-05
100.071	3.39302976032	1.8758661079e-05
102.638	3.3930298442	1.86321759366e-05
105.271	3.39303001069	1.85295295967e-05
107.972	3.39302967001	1.8444631252e-05
110.741	3.39303002081	1.83732863183e-05
113.582	3.3930270187	1.83125992449e-05
116.496	3.39302577238	1.82603877199e-05
119.484	3.39302778968	1.8214909718e-05
122.549	3.39302531137	1.81747003758e-05
125.693	3.39302632396	1.81383500522e-05
128.917	3.39302661043	1.81046864429e-05
132.224	3.39302566165	1.80728909899e-05
135.616	3.3930262155	1.80428211255e-05
139.094	3.39302524906	1.80152487394e-05
142.663	3.39302362977	1.79915874657e-05
146.322	3.39302794451	1.79732526092e-05
150.076	3.39302030827	1.79611512501e-05
153.925	3.39303043624	1.79550098922e-05
157.874	3.39301985105	1.79541793899e-05
161.923	3.39303206957	1.79572830705e-05
166.077	3.39302744131	1.79634830087e-05
170.337	3.39302302405	1.79719309597e-05
174.707	3.39302554736	1.79821341348e-05
179.188	3.39302381298	1.79939189467e-05
183.785	3.39302261351	1.80071632909e-05
188.499	3.39302604299	1.80218196799e-05
193.335	3.39302802689	1.80379273576e-05
198.294	3.39302184862	1.80555431066e-05
203.381	3.39301319766	1.80746639824e-05
208.598	3.39301751321	1.8095238085e-05
213.949	3.39301680166	1.81173929191e-05
219.437	3.39303839571	1.81410132518e-05
225.066	3.39302299828	1.81664435968e-05
230.839	3.39301530728	1.81934673554e-05
236.761	3.3930029997	1.82221662909e-05
242.834	3.39302713912	1.82523288103e-05
249.063	3.39300291017	1.82844142688e-05
255.452	3.3930323703	1.831787185e-05
262.005	3.3930258946	1.83531806057e-05
268.726	3.39302941062	1.83900877404e-05
275.619	3.39305212579	1.84285391851e-05
282.69	3.39301909648	1.84689419741e-05
289.941	3.39301292722	1.85108529405e-05
297.379	3.39302273207	1.85543435011e-05
305.007	3.39300585081	1.85996683484e-05
