Material: main / Si / Franta-25C
Optical constants. D. Franta, A. Dubroka, C. Wang, A. Giglia, J. Vohánka, P. Franta, I. Ohlídal. Temperature-dependent dispersion model of float zone crystalline silicon, Appl. Surf. Sci. 421, 405-419 (2017) (Numerical data kindly provided by Daniel Franta)
Comments: Float zone c-Si; Heterogenous data processing combining ellipsometric and spectrophotometric measurements with refractive index determined in B. J. Frey, D. B. Leviton, T. J. Madison. Temperature-dependent refractive index of silicon and germanium, Proc. SPIE 6273, 62732J (2006). Numerical procedures updated in D. Franta, P. Franta, J. Vohánka, M. Čermák, I. Ohlídal. Determination of thicknesses and temperatures of crystalline silicon wafers from optical measurements in the far infrared region, J. Appl. Phys. 123, 185707 (2018). Temperature 25 °C."
Conditions: {"temperature": 25}
wavelength (um)	n	k
0.0309963	0.916646150105	0.0104678782398
0.0317914	0.911656862491	0.011363561571
0.0326069	0.906390585261	0.0123376258816
0.0334434	0.900839881569	0.0133969314909
0.0343012	0.894979641825	0.0145491867865
0.0351811	0.888790325963	0.0158027028231
0.0360836	0.882263395874	0.017166299896
0.0370092	0.875367572204	0.0186499777419
0.0379586	0.86807850198	0.0202644880446
0.0389323	0.860382441646	0.0220212395537
0.039931	0.852241328753	0.0239332130593
0.0409553	0.843628646633	0.0260142297087
0.0420059	0.834520633183	0.0282791787814
0.0430834	0.824866449042	0.0307451601535
0.0441886	0.814641438012	0.033429876894
0.0453221	0.803881263289	0.0363497267096
0.0464847	0.792319329671	0.0395365702116
0.0476771	0.77969318858	0.0430285117439
0.0489001	0.767358291525	0.0467728774542
0.0501545	0.753655280115	0.0508880973902
0.0514411	0.738770410391	0.0554000079567
0.0527606	0.722822786751	0.0603388036522
0.054114	0.705464866935	0.0657782311822
0.0555022	0.687578796524	0.0716837460112
0.0569259	0.667606843534	0.0782702731444
0.0583862	0.645861911523	0.0856074799778
0.0598839	0.622611429712	0.0937756550799
0.06142	0.596193261799	0.10319500482
0.0629956	0.566347258479	0.114464058141
0.0646115	0.531644974476	0.130268310517
0.0662689	0.494687638104	0.155594830431
0.0679688	0.464209721507	0.188900913797
0.0697124	0.440483603701	0.220228834671
0.0715006	0.414626416139	0.247896759909
0.0733348	0.383336093214	0.278285585223
0.0752159	0.349239016296	0.315780932705
0.0771454	0.315976016557	0.361525108111
0.0791243	0.286758536432	0.415163657158
0.081154	0.264684889464	0.474687915128
0.0832357	0.251137729027	0.535718308694
0.0853709	0.243907897117	0.5948933574
0.0875608	0.239313633316	0.650172723681
0.0898069	0.232462811153	0.704693041955
0.0921107	0.225817081951	0.764560084913
0.0944735	0.224935324379	0.828267024095
0.0968969	0.230069135946	0.891622957729
0.0993825	0.238666424097	0.952899467713
0.101932	0.248953201234	1.01312575898
0.104547	0.26065283696	1.07349917365
0.107228	0.274267961541	1.13488622044
0.109979	0.290747135382	1.19802470709
0.1128	0.31237256991	1.2634771986
0.115694	0.343926769985	1.32881864607
0.118662	0.386950032464	1.38307502531
0.121705	0.424877035174	1.41730842954
0.124827	0.443227579693	1.44934378298
0.128029	0.453877915714	1.49377956233
0.131314	0.469068593963	1.5470575556
0.134682	0.48948180781	1.60133792663
0.138137	0.512272294558	1.65465022101
0.14168	0.535249117333	1.70571899182
0.145315	0.553331883924	1.75702711411
0.149042	0.569979083333	1.81704943212
0.152866	0.595634101485	1.88084012705
0.156787	0.624681029794	1.93613110232
0.160809	0.641017670694	1.98726648505
0.164934	0.645057562284	2.05398469494
0.169165	0.654483714369	2.14206673201
0.173504	0.681669162561	2.24296056541
0.177955	0.726800092254	2.33987564326
0.18252	0.774536191288	2.43547071134
0.187202	0.836087516626	2.52624194412
0.192004	0.894724542446	2.61337534782
0.196929	0.955217370536	2.70303434958
0.201981	1.01901905476	2.7959852255
0.207162	1.08733196426	2.89301726287
0.212476	1.16134841331	2.99526343412
0.217926	1.24358500392	3.10612726839
0.223517	1.35004968051	3.22964686788
0.22925	1.50607388786	3.32418158377
0.235131	1.62988815716	3.33169204412
0.241163	1.63628487876	3.36777107808
0.247349	1.63189187545	3.52046648647
0.253694	1.67339243622	3.73670441707
0.260202	1.7449549672	4.0223367867
0.266876	1.9143584632	4.43702498002
0.273722	2.35038641933	4.90774227529
0.280744	3.03334743358	5.2175468379
0.287945	4.01564704858	5.313833203
0.295332	4.87602497589	4.60301316529
0.302907	5.01762103877	3.92043679378
0.310678	5.01573629666	3.54780219213
0.318647	5.04271892512	3.32067106775
0.326821	5.10508249725	3.15147821694
0.335205	5.18912702117	3.02147464945
0.343803	5.30855136067	2.9457001367
0.352622	5.53767861465	2.95197482073
0.361668	6.16993523821	2.90351785727
0.370945	6.88897304771	1.98079448829
0.380461	6.53725636804	0.892941975643
0.39022	5.98337956456	0.500860848358
0.40023	5.59603753604	0.33044742471
0.410497	5.3091400566	0.242310918109
0.421027	5.09080458369	0.18723041126
0.431827	4.91473934187	0.146866260412
0.442904	4.76671231378	0.1166780106
0.454266	4.63993110821	0.0946451485104
0.465918	4.53053604558	0.0788347942328
0.47787	4.43572041915	0.0673999893051
0.490128	4.35311478075	0.0587986609516
0.502701	4.28062696293	0.0519035520409
0.515596	4.21644838088	0.04599947849
0.528822	4.15907891289	0.0407048601064
0.542388	4.10733256294	0.0358616075018
0.556301	4.06030256275	0.0314320349091
0.570571	4.01730915669	0.0274244348321
0.585207	3.9778370874	0.0238510666549
0.600219	3.94148792102	0.0207110170304
0.615616	3.907939198	0.0179877326651
0.631408	3.87692486745	0.0156528720626
0.647605	3.84821535423	0.0136716293821
0.664217	3.82161158025	0.0120071528453
0.681255	3.79693680458	0.0106233893842
0.698731	3.77403748589	0.00948623370621
0.716655	3.75277822824	0.00856306417788
0.735038	3.73304321335	0.00782050974382
0.753893	3.71473233355	0.00722026368106
0.773232	3.69775565251	0.00671328095096
0.793067	3.68202212323	0.00623513625895
0.813411	3.66742257987	0.00571022060235
0.834276	3.65381094623	0.00507473369945
0.855677	3.64101734273	0.00431382238142
0.877627	3.62888899351	0.00347914542848
0.90014	3.61733585299	0.00265917491895
0.92323	3.6063316272	0.00192976845792
0.946913	3.59587859903	0.0013299939294
0.971203	3.58598397978	0.000866773812727
0.996116	3.57664570682	0.000528288426647
1.02167	3.5678520042	0.000294958559055
1.04788	3.55958289847	0.000146310333185
1.07476	3.55181628665	6.44066499221e-05
1.10233	3.54453289389	3.09600881223e-05
1.1306	3.53770133721	1.34889616976e-05
1.1596	3.5312781547	3.92493527403e-06
1.18935	3.52523325025	3.1293043279e-07
1.21986	3.51953946689	8.28892092203e-08
1.25115	3.51417301149	4.993314884e-08
1.28325	3.50911008712	3.06261743253e-08
1.31616	3.50433035987	1.91184733652e-08
1.34993	3.49981620034	1.21419386904e-08
1.38455	3.49555086926	7.84133190809e-09
1.42007	3.49151864594	5.14669621589e-09
1.4565	3.48770576071	3.43127121142e-09
1.49386	3.4840993946	2.32223564803e-09
1.53218	3.48068673487	1.59444995756e-09
1.57148	3.47745726251	1.10992836092e-09
1.6118	3.47439954118	7.82868081342e-10
1.65314	3.4715040928	5.59154594306e-10
1.69555	3.46876185361	4.04186218884e-10
1.73904	3.46616426337	2.95540640082e-10
1.78365	3.46370260703	2.18498954675e-10
1.82941	3.46137018686	1.63277686666e-10
1.87633	3.45915930146	1.23295483141e-10
1.92446	3.45706329324	9.40736371174e-11
1.97383	3.45507579374	7.25305132711e-11
2.02446	3.45319167026	5.6523250167e-11
2.07639	3.45140455125	4.45467670046e-11
2.12966	3.44970931295	3.55337701962e-11
2.18429	3.44810114489	2.872056419e-11
2.24032	3.44657574267	2.35560333933e-11
2.29779	3.44512823472	2.00453105676e-11
2.35673	3.44375452249	1.83296037517e-11
2.41718	3.44245114874	1.71154235486e-11
2.47919	3.44121398855	1.63090819629e-11
2.54279	3.44003980414	1.58391617439e-11
2.60801	3.43892489744	1.56513032371e-11
2.67491	3.43786656537	1.5704281902e-11
2.74353	3.43686203217	1.5967064842e-11
2.81391	3.43590805053	1.64165856545e-11
2.88609	3.4350024153	1.70360501243e-11
2.96012	3.43414230783	1.78136625963e-11
3.03606	3.43332568695	1.87416442215e-11
3.11394	3.432549854	1.98154979737e-11
3.19382	3.43181301672	2.10334352129e-11
3.27574	3.43111348591	2.23959502203e-11
3.35977	3.43044875916	2.39055017184e-11
3.44596	3.42981735636	2.55662576336e-11
3.53435	3.42921746635	2.73839231164e-11
3.62502	3.42864779237	2.9365603396e-11
3.718	3.42810645618	3.1519720714e-11
3.81338	3.427592089	3.3855945004e-11
3.9112	3.42710314705	3.63851642271e-11
4.01153	3.42663884566	3.91194595287e-11
4.11443	3.42619757771	4.20721234276e-11
4.21998	3.4257780623	4.52576640206e-11
4.32823	3.42537967421	4.86918265748e-11
4.43925	3.42500082993	5.23916524218e-11
4.55313	3.42464059461	5.63755040402e-11
4.66992	3.42429847134	6.06822479963e-11
4.78972	3.4239729696	2.50503892207e-10
4.91258	3.42366368186	3.1019309628e-09
5.0386	3.42336944802	2.61566986611e-08
5.16785	3.4230895107	1.95655015745e-07
5.30042	3.42282351653	2.31220079564e-07
5.43638	3.42257032266	2.92107497364e-07
5.57583	3.42232953401	4.92505730039e-07
5.71887	3.42210054516	6.22701416559e-07
5.86557	3.42188215245	6.50186290389e-07
6.01603	3.42167432167	8.19458216632e-07
6.17035	3.42147608142	1.16934024599e-06
6.32863	3.42128697042	1.46786912188e-06
6.49097	3.42110562307	1.65139592546e-06
6.65748	3.42092877158	4.0714363108e-06
6.82826	3.42076217447	2.02034311491e-05
7.00342	3.42062644301	2.29885818482e-05
7.18307	3.42047806114	1.96562280659e-05
7.36733	3.42033943346	1.92552011022e-05
7.55631	3.42020116823	2.37027224991e-05
7.75015	3.4200830353	2.86651880446e-05
7.94895	3.41996295673	2.06435301304e-05
8.15286	3.41983736412	1.7828742124e-05
8.36199	3.419714653	2.88074313212e-05
8.5765	3.41960909977	4.48800388502e-05
8.7965	3.41951388523	6.48266824118e-05
9.02215	3.41944191519	7.01171217885e-05
9.25358	3.41936177999	5.39245102876e-05
9.49095	3.41926127575	3.8999015705e-05
9.73442	3.41915143298	4.23448026588e-05
9.98412	3.41905029521	6.86652230558e-05
10.2402	3.41897491334	0.000111178326412
10.5029	3.41892584648	0.000125886428611
10.7723	3.41884586679	0.000141665912688
11.0487	3.41879555457	0.000195221933791
11.3321	3.4187889951	0.000211565801568
11.6228	3.41877360238	0.000183245761919
11.9209	3.41868871545	0.000145449519153
12.2267	3.41863170484	0.000205818787336
12.5404	3.41857356253	0.000180095357762
12.862	3.41853655362	0.000214670147134
13.192	3.41849576793	0.000242995559378
13.5304	3.4185093599	0.000322521902463
13.8775	3.41858347094	0.000228186301165
14.2334	3.41846788025	0.000100016082061
14.5986	3.41835510575	0.000117323527739
14.973	3.41825362445	0.000127953751799
15.3571	3.41813026501	0.000146106801283
15.7511	3.41787317632	0.000188450935617
16.1551	3.41788846699	0.00107158614595
16.5695	3.41868974118	0.000965790866715
16.9946	3.4186581159	0.00043386571512
17.4305	3.41847406438	0.000375546014538
17.8776	3.41848688331	0.000397077786146
18.3362	3.41848193309	0.000355698794054
18.8066	3.41845735829	0.000323303788716
19.289	3.41844514487	0.000307877227718
19.7838	3.41844101322	0.000285870742393
20.2913	3.41843379718	0.000266073532723
20.8118	3.41843589029	0.000231052920599
21.3457	3.41841355115	0.00018905419815
21.8932	3.41838415298	0.000162348844718
22.4548	3.41835646554	0.000142561664033
23.0308	3.4183290675	0.000125147354031
23.6216	3.41830012073	0.000111196081356
24.2276	3.41827121086	0.000102332502156
24.8491	3.41824316687	9.7484398094e-05
25.4865	3.41821526074	9.68805582429e-05
26.1403	3.41819030781	0.000109172066793
26.8108	3.41818692992	0.000113130999705
27.4986	3.41817459147	0.000109806341943
28.2039	3.41816099622	0.000108594732178
28.9274	3.41814789879	0.000108476395251
29.6695	3.41813500353	0.00010966635018
30.4306	3.41812376072	0.000111881494155
31.2112	3.41811118712	0.00011611386101
32.0118	3.41811030808	0.000126785883189
32.8329	3.41810788666	0.000119923570719
33.6752	3.41809980063	0.000118458028314
34.539	3.41809284916	0.000118421403325
35.425	3.41808588645	0.000118696816619
36.3337	3.41807999766	0.000119036999837
37.2658	3.41807396938	0.000119439205327
38.2217	3.41806806701	0.000120572840676
39.2021	3.41806304293	0.000121288756466
40.2078	3.41805732647	0.00012250785528
41.2392	3.41805282662	0.000123802925117
42.297	3.41804634361	0.000125328180165
43.382	3.41804125814	0.00012926870448
44.4949	3.41803745378	0.000133517901408
45.6362	3.41803475586	0.000137748207143
46.8069	3.41803258325	0.000141966346535
48.0076	3.41803073643	0.000146300434582
49.2391	3.41802936198	0.000151230714751
50.5022	3.41802925344	0.000156732472483
51.7976	3.41802990619	0.000162272939431
53.1263	3.41803210518	0.000167715360349
54.4891	3.41803485203	0.000173048165194
55.8869	3.41803898107	0.000178225770601
57.3205	3.41804385499	0.000183157187591
58.7909	3.41804985036	0.000187760451344
60.299	3.41805730311	0.000192057685127
61.8458	3.41806562136	0.00019686662504
63.4322	3.41807847222	0.000203248428229
65.0594	3.41810147772	0.000202099857743
66.7283	3.41812088018	0.000184293512477
68.44	3.41812304553	0.000162684029804
70.1956	3.41811872786	0.000150498810689
71.9963	3.41811450924	0.000142110948078
73.8431	3.41810801292	0.000137192595536
75.7373	3.4181020519	0.000137289608229
77.6801	3.41809924248	0.00014049540068
79.6728	3.41809955004	0.000148558232439
81.7165	3.418110671	0.000156416822532
83.8127	3.41812885628	0.000153619762465
85.9627	3.41814242904	0.000139985507403
88.1678	3.41814450112	0.000124085056359
90.4294	3.41814339796	0.000111551084451
92.7491	3.41813941471	0.000102816450777
95.1283	3.41813453929	9.66126720072e-05
97.5686	3.41813141456	9.19298517295e-05
100.071	3.4181271229	8.82111538088e-05
102.638	3.41812530056	8.51528873084e-05
105.271	3.41812368943	8.2569725846e-05
107.972	3.41812191532	8.03376159481e-05
110.741	3.41812116282	7.83711970256e-05
113.582	3.41811704994	7.66108627461e-05
116.496	3.4181148803	7.50122870919e-05
119.484	3.41811589504	7.35396361874e-05
122.549	3.41811306531	7.21613759054e-05
125.693	3.41811365311	7.08477678851e-05
128.917	3.41811320986	6.95723099054e-05
132.224	3.41811197311	6.83166883675e-05
135.616	3.41811201125	6.7079585321e-05
139.094	3.41811052433	6.58827747611e-05
142.663	3.41810846365	6.47663192781e-05
146.322	3.41811200511	6.37724611634e-05
150.076	3.41810405526	6.29278013535e-05
153.925	3.41811339177	6.22329136496e-05
157.874	3.41810250388	6.16683467188e-05
161.923	3.41811448727	6.12034356646e-05
166.077	3.41810957711	6.08101733525e-05
170.337	3.41810475041	6.04664782183e-05
174.707	3.41810724628	6.01582148175e-05
179.188	3.41810521231	5.98775644855e-05
183.785	3.41810407992	5.9620112049e-05
188.499	3.41810729395	5.93834518211e-05
193.335	3.41810940308	5.91662728057e-05
198.294	3.41810331836	5.89677122501e-05
203.381	3.41809490514	5.87868768369e-05
208.598	3.41809909075	5.86228218916e-05
213.949	3.41809846667	5.84752245113e-05
219.437	3.41812006855	5.83430471439e-05
225.066	3.41810506079	5.82267522625e-05
230.839	3.41809766036	5.81250652079e-05
236.761	3.41808566251	5.80376906182e-05
242.834	3.41810978941	5.79634468793e-05
249.063	3.41808596474	5.79032817672e-05
255.452	3.41811538918	5.78550157245e-05
262.005	3.41810941766	5.78197033821e-05
268.726	3.41811308005	5.77961573944e-05
275.619	3.41813597213	5.77838177533e-05
282.69	3.41810337641	5.77835819583e-05
289.941	3.41809762659	5.77937302011e-05
297.379	3.41810750983	5.78141657701e-05
305.007	3.41809137267	5.78453513903e-05
