Material: main / Si / Franta-10K
Optical constants. D. Franta, A. Dubroka, C. Wang, A. Giglia, J. Vohánka, P. Franta, I. Ohlídal. Temperature-dependent dispersion model of float zone crystalline silicon, Appl. Surf. Sci. 421, 405-419 (2017) (Numerical data kindly provided by Daniel Franta)
Comments: Float zone c-Si; Heterogenous data processing combining ellipsometric and spectrophotometric measurements with refractive index determined in B. J. Frey, D. B. Leviton, T. J. Madison. Temperature-dependent refractive index of silicon and germanium, Proc. SPIE 6273, 62732J (2006). Numerical procedures updated in D. Franta, P. Franta, J. Vohánka, M. Čermák, I. Ohlídal. Determination of thicknesses and temperatures of crystalline silicon wafers from optical measurements in the far infrared region, J. Appl. Phys. 123, 185707 (2018). Temperature 10 K."
Conditions: {"temperature": 10}
wavelength (um)	n	k
0.0309963	0.917005825563	0.0111876064665
0.0317914	0.912068255763	0.0121421126407
0.0326069	0.906865476109	0.0131792907781
0.0334434	0.90138158287	0.014306309752
0.0343012	0.89561413656	0.0155306824476
0.0351811	0.889507111822	0.0168614594705
0.0360836	0.883097628622	0.0183066702426
0.0370092	0.876305023257	0.0198772921999
0.0379586	0.869152458535	0.0215829336369
0.0389323	0.86160996323	0.023435021637
0.039931	0.853645097234	0.0254459012362
0.0409553	0.845236718941	0.0276284475593
0.0420059	0.836344874326	0.0299969921529
0.0430834	0.826948387054	0.0325661528025
0.0441886	0.817020142017	0.0353515686535
0.0453221	0.806531953051	0.0383697423484
0.0464847	0.795391058611	0.0416413385402
0.0476771	0.783617223426	0.0451826178673
0.0489001	0.771097982122	0.0490179685614
0.0501545	0.757802563178	0.0531688672688
0.0514411	0.743646771162	0.0576618864119
0.0527606	0.728525583883	0.0625280996098
0.054114	0.712322153588	0.0678037773586
0.0555022	0.694963791665	0.073526169432
0.0569259	0.676204129282	0.0797582446247
0.0583862	0.655826543725	0.0865831385393
0.0598839	0.633483897171	0.0941233186165
0.06142	0.608665407933	0.102575812103
0.0629956	0.580316018439	0.112553519831
0.0646115	0.547232000531	0.126473115677
0.0662689	0.511941320492	0.148971869844
0.0679688	0.482374228307	0.178826757852
0.0697124	0.458949935745	0.206563255975
0.0715006	0.432915365112	0.230228277704
0.0733348	0.40054346198	0.255884668849
0.0752159	0.363886865223	0.288259461471
0.0771454	0.326335297916	0.32943221084
0.0791243	0.291771220125	0.379550793502
0.081154	0.263722510836	0.436193551892
0.0832357	0.2425569271	0.495065295392
0.0853709	0.225674998895	0.554492799937
0.0875608	0.21164945911	0.614401483573
0.0898069	0.198345811539	0.676870565999
0.0921107	0.189068011469	0.745088910916
0.0944735	0.188079333341	0.815992180304
0.0968969	0.194259042084	0.884966653829
0.0993825	0.204313946597	0.950949058081
0.101932	0.216348852819	1.01510643167
0.104547	0.230059227936	1.07882895584
0.107228	0.245943842772	1.14300117962
0.109979	0.264896918563	1.20823598131
0.1128	0.288968009045	1.27489795004
0.115694	0.32240849353	1.34063034171
0.118662	0.366306050276	1.39495293826
0.121705	0.403880360518	1.4293453227
0.124827	0.421312387503	1.46355975772
0.128029	0.431814937129	1.51063695883
0.131314	0.447461026092	1.56752471881
0.134682	0.469600789291	1.62572856011
0.138137	0.495242964367	1.68268718409
0.14168	0.522046009054	1.73696838645
0.145315	0.544925085711	1.7906408759
0.149042	0.566800096835	1.85177545806
0.152866	0.597670712593	1.91593084742
0.156787	0.632540119579	1.97094920875
0.160809	0.655636504398	2.02014992516
0.164934	0.666566657527	2.08220903802
0.169165	0.682035109114	2.16131307093
0.173504	0.707492844508	2.24783850616
0.177955	0.740124607727	2.33805440347
0.18252	0.777318855461	2.43637760348
0.187202	0.835226584701	2.53469141224
0.192004	0.894049786592	2.62713103951
0.196929	0.955746607047	2.72081304789
0.201981	1.02150593428	2.81716534664
0.207162	1.09237397094	2.91702962693
0.212476	1.16921583794	3.02158912592
0.217926	1.25334880207	3.13489828763
0.223517	1.3629019275	3.27064814083
0.22925	1.56095908356	3.36753952207
0.235131	1.68377127567	3.30664943618
0.241163	1.62928098158	3.34534437418
0.247349	1.61071463189	3.52137643072
0.253694	1.62742959645	3.75220039919
0.260202	1.65787522549	4.09154051631
0.266876	1.84125236872	4.64204232764
0.273722	2.46314791878	5.21241447811
0.280744	3.33351700959	5.41248701649
0.287945	4.50372302324	5.28409896226
0.295332	5.03644808008	4.31871340019
0.302907	5.03917997567	3.75948327816
0.310678	5.01847567891	3.4638293026
0.318647	5.05062069006	3.28165687585
0.326821	5.12190319671	3.14884355064
0.335205	5.2257288337	3.06297109656
0.343803	5.3863496057	3.05614377896
0.352622	5.79558616542	3.21514562672
0.361668	7.12434987747	2.71169215633
0.370945	7.04699855035	1.13339494378
0.380461	6.29158643808	0.441560714314
0.39022	5.75830866583	0.253907159286
0.40023	5.41304041867	0.178055917261
0.410497	5.1612561076	0.126764664306
0.421027	4.95894229042	0.0902072664445
0.431827	4.79076153984	0.0661003819905
0.442904	4.6494006804	0.0512971808064
0.454266	4.52990880769	0.0426314867689
0.465918	4.42826578025	0.0375406856577
0.47787	4.3410528816	0.0342317866599
0.490128	4.26539998924	0.0316088639037
0.502701	4.19897344287	0.0291115408973
0.515596	4.13994502554	0.0265382336303
0.528822	4.08693069714	0.0238897296891
0.542388	4.03890671863	0.0212520178117
0.556301	3.99512011537	0.0187238191769
0.570571	3.9550085832	0.0163821472753
0.585207	3.91813910283	0.0142730371084
0.600219	3.88416489624	0.0124150702712
0.615616	3.85279821925	0.010807200603
0.631408	3.82379386481	0.00943643916597
0.647605	3.79693895466	0.00828370945406
0.664217	3.77204738583	0.00732757980148
0.681255	3.74895594983	0.00654606777839
0.698731	3.72752260151	0.00591668688977
0.716655	3.70762430294	0.00541469123643
0.735038	3.68915419588	0.00500935736028
0.753893	3.6720158467	0.00465882671029
0.773232	3.65611077719	0.0043068176697
0.793067	3.64132021997	0.00388972494174
0.813411	3.6274934438	0.0033631242667
0.834276	3.61446653293	0.00273685529785
0.855677	3.60211170429	0.00207967461815
0.877627	3.59036973931	0.00147672695234
0.90014	3.57923304573	0.000982736085846
0.92323	3.56870737322	0.000611043055313
0.946913	3.55878864005	0.000349019201214
0.971203	3.54945916035	0.000175378998002
0.996116	3.54069217817	6.97194254496e-05
1.02167	3.5324576561	1.57022859737e-05
1.04788	3.52472845559	8.42242134898e-07
1.07476	3.51747944359	3.93729486657e-07
1.10233	3.51066392495	2.20458258174e-07
1.1306	3.50424675274	1.15167396187e-07
1.1596	3.49819923166	6.12249602551e-08
1.18935	3.4924960149	3.31083376383e-08
1.21986	3.48711428515	1.82043241418e-08
1.25115	3.48203338678	1.01733147398e-08
1.28325	3.47723433679	5.77599905462e-09
1.31616	3.47269964513	3.33040691728e-09
1.34993	3.4684131826	1.94941232451e-09
1.38455	3.46436000785	1.15791654383e-09
1.42007	3.46052623675	6.97664690511e-10
1.4565	3.45689890487	4.26221346385e-10
1.49386	3.45346601933	2.63909136271e-10
1.53218	3.45021631723	1.65537679492e-10
1.57148	3.44713933211	1.05129214589e-10
1.6118	3.44422526467	6.75531412092e-11
1.65314	3.44146488528	4.38832453179e-11
1.69555	3.43884961733	2.87874452522e-11
1.73904	3.43637135261	1.90416343151e-11
1.78365	3.43402257538	1.26730522209e-11
1.82941	3.43179610508	8.46056449813e-12
1.87633	3.4296852805	5.63971218307e-12
1.92446	3.42768379801	3.72662755997e-12
1.97383	3.4257857631	2.41173452193e-12
2.02446	3.42398558562	1.49487711336e-12
2.07639	3.42227805073	8.45308760285e-13
2.12966	3.42065811815	3.76758882885e-13
2.18429	3.41912121974	3.173773888e-14
2.24032	3.41766293588	1.90404504839e-14
2.29779	3.41627905809	1.51162661542e-14
2.35673	3.41496572668	1.20619606483e-14
2.41718	3.41371921767	9.67289542107e-15
2.47919	3.41253601832	7.79506500327e-15
2.54279	3.41141288251	6.31200666502e-15
2.60801	3.41034662725	5.1352288362e-15
2.67491	3.40933431156	4.19717791182e-15
2.74353	3.40837315698	3.44604689763e-15
2.81391	3.40746051808	2.84192533583e-15
2.88609	3.40659387138	2.3539310037e-15
2.96012	3.40577086552	1.95806343419e-15
3.03606	3.40498927018	1.63559062976e-15
3.11394	3.40424694067	1.37183115553e-15
3.19382	3.4035418974	1.15523081064e-15
3.27574	3.4028722097	9.76659766997e-16
3.35977	3.40223606528	8.28875225359e-16
3.44596	3.40163177569	7.06109016741e-16
3.53435	3.40105772324	6.0374984132e-16
3.62502	3.40051235686	5.18097431557e-16
3.718	3.39999423083	4.4617165103e-16
3.81338	3.39950198068	3.85563700863e-16
3.9112	3.39903423678	3.34319714296e-16
4.01153	3.39858982681	2.90849326741e-16
4.11443	3.39816753275	2.53853671817e-16
4.21998	3.39776622728	2.22268408779e-16
4.32823	3.39738487314	1.95218527773e-16
4.43925	3.39702243892	1.71982372183e-16
4.55313	3.39667800608	1.51963827839e-16
4.66992	3.39635062819	4.76648585093e-14
4.78972	3.3960394394	2.10643361556e-10
4.91258	3.39574362383	2.38909289304e-09
5.0386	3.39546235173	2.54897182333e-08
5.16785	3.39519502133	1.34882885174e-07
5.30042	3.39494086909	1.52198695162e-07
5.43638	3.39469911447	1.9347015374e-07
5.57583	3.3944692282	3.16023084051e-07
5.71887	3.39425062013	3.72673750245e-07
5.86557	3.39404253504	3.81382263504e-07
6.01603	3.39384438793	4.768598006e-07
6.17035	3.39365570913	6.5592180617e-07
6.32863	3.39347584882	7.77591475565e-07
6.49097	3.39330338809	9.87070670888e-07
6.65748	3.39313638126	3.34957289264e-06
6.82826	3.39298063168	1.66176573566e-05
7.00342	3.39284751982	1.592122939e-05
7.18307	3.39270714114	1.42130709497e-05
7.36733	3.39257529016	1.32919799183e-05
7.55631	3.39244599228	1.71404017283e-05
7.75015	3.3923324254	1.93849111316e-05
7.94895	3.39221784871	1.43507048858e-05
8.15286	3.39210319728	1.29754164871e-05
8.36199	3.39199229086	1.9616933175e-05
8.5765	3.39189329326	2.8514681303e-05
8.7965	3.39180225414	4.04950135598e-05
9.02215	3.39172710052	4.2583613941e-05
9.25358	3.39164636022	3.02899356418e-05
9.49095	3.39155212818	2.08812309263e-05
9.73442	3.3914514584	2.7312329605e-05
9.98412	3.39136386548	5.4392401113e-05
10.2402	3.3913012384	8.64618891932e-05
10.5029	3.39125264005	9.59490781703e-05
10.7723	3.39118514525	0.000111610388073
11.0487	3.39114502787	0.000149586212598
11.3321	3.39113710518	0.000155906299401
11.6228	3.39111817829	0.000121294093547
11.9209	3.39103477748	8.67203637293e-05
12.2267	3.39099610259	0.00013024250792
12.5404	3.39093178415	0.000107428096979
12.862	3.3908933471	0.000127598587287
13.192	3.39085247131	0.000150272405619
13.5304	3.39087042014	0.000206960465315
13.8775	3.39090680742	0.000130946890251
14.2334	3.39081306459	5.04144709231e-05
14.5986	3.39074013424	6.0043491373e-05
14.973	3.39067476506	6.56073956627e-05
15.3571	3.39060115599	7.37218761616e-05
15.7511	3.39045401938	9.1156640924e-05
16.1551	3.39049709494	0.000531250309435
16.5695	3.39088269059	0.000347053083373
16.9946	3.390772444	0.000153615399274
17.4305	3.39067480062	0.000154634439427
17.8776	3.39068489228	0.000156243326353
18.3362	3.39066412866	0.000132909847633
18.8066	3.39063724238	0.000119029782147
19.289	3.39061858231	0.000115979492051
19.7838	3.3906077147	0.000105977409375
20.2913	3.39059531601	9.46973116742e-05
20.8118	3.39058412127	7.78603810125e-05
21.3457	3.39056149478	6.05917255082e-05
21.8932	3.39054069148	5.18198567991e-05
22.4548	3.39052132103	4.25850739311e-05
23.0308	3.39050078025	3.5219920544e-05
23.6216	3.39048076502	3.04304500295e-05
24.2276	3.39046208199	2.7678225889e-05
24.8491	3.39044490444	2.61770036086e-05
25.4865	3.39042856852	2.57526932608e-05
26.1403	3.39041418391	3.03083376425e-05
26.8108	3.39040789803	2.93788884837e-05
27.4986	3.39039760932	2.65280454931e-05
28.2039	3.39038726352	2.44936262179e-05
28.9274	3.39037735154	2.28161710844e-05
29.6695	3.39036787176	2.13527844588e-05
30.4306	3.39035891765	2.00431943867e-05
31.2112	3.39035038725	1.88473574242e-05
32.0118	3.39034229551	1.77412808894e-05
32.8329	3.39033472556	1.67073716821e-05
33.6752	3.39032750861	1.57309956794e-05
34.539	3.39032062558	1.47999894963e-05
35.425	3.39031401261	1.39062532392e-05
36.3337	3.39030793767	1.30444421035e-05
37.2658	3.39030195123	1.22100291953e-05
38.2217	3.3902963463	1.13990247783e-05
39.2021	3.39029105899	1.06080109678e-05
40.2078	3.39028597037	9.83482611017e-06
41.2392	3.39028107368	9.07909060758e-06
42.297	3.39027642544	8.34111496291e-06
43.382	3.39027201816	7.62203674218e-06
44.4949	3.39026765739	6.92567134462e-06
45.6362	3.39026343228	6.25811725075e-06
46.8069	3.39025950903	5.62830647269e-06
48.0076	3.39025558342	5.07379366154e-06
49.2391	3.39025162326	4.71078103789e-06
50.5022	3.39024822908	4.50433153488e-06
51.7976	3.39024474165	4.3322419135e-06
53.1263	3.39024177038	4.17082587454e-06
54.4891	3.39023873101	4.0186692501e-06
55.8869	3.39023622236	3.87509466383e-06
57.3205	3.39023342337	3.73948192657e-06
58.7909	3.3902309752	3.61125725455e-06
60.299	3.39022881119	3.48989205878e-06
61.8458	3.3902266149	3.37489895563e-06
63.4322	3.39022415539	3.26582848329e-06
65.0594	3.39022211134	3.16226644394e-06
66.7283	3.39022035867	3.06383540767e-06
68.44	3.39021821236	2.97019548689e-06
70.1956	3.39021704731	2.88104190546e-06
71.9963	3.39021524199	2.7961056837e-06
73.8431	3.39021407997	2.71514195818e-06
75.7373	3.3902118377	2.63792852103e-06
77.6801	3.39021111177	2.56425562155e-06
79.6728	3.3902094176	2.49393097393e-06
81.7165	3.39020809547	2.42677159972e-06
83.8127	3.39020724895	2.36260712774e-06
85.9627	3.39020691073	2.30127850639e-06
88.1678	3.39020451452	2.24263916817e-06
90.4294	3.39020474159	2.18654775893e-06
92.7491	3.39020355646	2.13287793959e-06
95.1283	3.39020167523	2.08150861792e-06
97.5686	3.39020127943	2.03232565568e-06
100.071	3.39019911164	1.98522550358e-06
102.638	3.39019915007	1.94010719719e-06
105.271	3.3901992432	1.89688014507e-06
107.972	3.39019879522	1.85545946567e-06
110.741	3.39019903038	1.81576568309e-06
113.582	3.3901958956	1.77772789859e-06
116.496	3.39019450491	1.74127519399e-06
119.484	3.3901963628	1.70634267739e-06
122.549	3.39019373119	1.67287332468e-06
125.693	3.39019456593	1.64080490923e-06
128.917	3.39019467579	1.6100835875e-06
132.224	3.39019353827	1.58065574215e-06
135.616	3.39019388068	1.55246824148e-06
139.094	3.39019274793	1.52547258658e-06
142.663	3.39019092133	1.49962058374e-06
146.322	3.39019505771	1.47486366257e-06
150.076	3.39018720281	1.45116626124e-06
153.925	3.39019714437	1.42847467186e-06
157.874	3.39018635105	1.40676699283e-06
161.923	3.39019835296	1.38598967465e-06
166.077	3.39019350611	1.36612673618e-06
170.337	3.39018888773	1.34714171806e-06
174.707	3.39019117693	1.32900544106e-06
179.188	3.39018922305	1.31169827671e-06
183.785	3.39018778435	1.29519649444e-06
188.499	3.39019100493	1.27947874523e-06
193.335	3.39019272727	1.26452986636e-06
198.294	3.39018633557	1.25033766082e-06
203.381	3.39017743804	1.23688909142e-06
208.598	3.39018152456	1.224171881e-06
213.949	3.39018056442	1.21218995418e-06
219.437	3.39020193422	1.20093381507e-06
225.066	3.3901862688	1.1904261201e-06
230.839	3.39017833785	1.18065233459e-06
236.761	3.39016575091	1.17161684117e-06
242.834	3.39018965668	1.16330356713e-06
249.063	3.39016516907	1.15573776469e-06
255.452	3.39019439165	1.14887894957e-06
262.005	3.39018766773	1.14275120877e-06
268.726	3.39019091716	1.13733277218e-06
275.619	3.39021340477	1.13261612585e-06
282.69	3.39018007931	1.1286251575e-06
289.941	3.39017364327	1.12533584006e-06
297.379	3.39018320898	1.12276123267e-06
305.007	3.39016605518	1.12093090624e-06
