Material: resists / Nanoscribe IP-S / Mavrona-cured
Optical constants. E. Mavrona, A. Theodosi, K. Mackosz, E. Perivolari, I. Utke, J. Michler, J. Schwiedrzik, M. Kafesaki, O. Tsilipakos, A. Xomalis. Refractive index measurement of IP-S and IP-Dip photoresists at THz frequencies and validation via 3D photonic metamaterials made by direct laser writing. Opt. Mater. Express, 13, 3355-3364 (2023) (Numerical data kindly provided by Angelos Xomalis)
Comments: Nanoscribe IP-S photoresist for direct laser writing. Cured.
wavelength (um)	n	k
199.861	1.58734056	5.61597E-02
200.268	1.58735612	5.61329E-02
200.678	1.58737244	5.61069E-02
201.089	1.58738939	5.60811E-02
201.501	1.58740692	5.60554E-02
201.916	1.58742508	5.60295E-02
202.332	1.58744394	5.60030E-02
202.750	1.58746366	5.59759E-02
203.169	1.58748441	5.59480E-02
203.591	1.58750639	5.59193E-02
204.014	1.58752977	5.58897E-02
204.439	1.58755474	5.58593E-02
204.865	1.58758140	5.58283E-02
205.294	1.58760986	5.57967E-02
205.724	1.58764014	5.57649E-02
206.156	1.58767222	5.57329E-02
206.590	1.58770605	5.57009E-02
207.025	1.58774152	5.56690E-02
207.463	1.58777852	5.56373E-02
207.902	1.58781690	5.56060E-02
208.344	1.58785653	5.55749E-02
208.787	1.58789729	5.55442E-02
209.232	1.58793908	5.55137E-02
209.679	1.58798184	5.54835E-02
210.127	1.58802552	5.54533E-02
210.578	1.58807014	5.54232E-02
211.031	1.58811570	5.53931E-02
211.485	1.58816228	5.53630E-02
211.942	1.58820993	5.53328E-02
212.400	1.58825872	5.53026E-02
212.861	1.58830872	5.52725E-02
213.324	1.58835997	5.52424E-02
213.788	1.58841249	5.52125E-02
214.255	1.58846629	5.51829E-02
214.723	1.58852132	5.51536E-02
215.194	1.58857755	5.51247E-02
215.667	1.58863490	5.50963E-02
216.142	1.58869328	5.50683E-02
216.618	1.58875262	5.50407E-02
217.097	1.58881284	5.50134E-02
217.579	1.58887391	5.49864E-02
218.062	1.58893580	5.49595E-02
218.547	1.58899853	5.49326E-02
219.035	1.58906218	5.49056E-02
219.525	1.58912685	5.48782E-02
220.017	1.58919267	5.48504E-02
220.511	1.58925982	5.48222E-02
221.007	1.58932849	5.47934E-02
221.506	1.58939887	5.47640E-02
222.007	1.58947115	5.47341E-02
222.510	1.58954550	5.47037E-02
223.016	1.58962208	5.46730E-02
223.523	1.58970097	5.46420E-02
224.034	1.58978224	5.46108E-02
224.546	1.58986593	5.45796E-02
225.061	1.58995201	5.45485E-02
225.578	1.59004043	5.45174E-02
226.097	1.59013113	5.44865E-02
226.619	1.59022401	5.44557E-02
227.144	1.59031899	5.44250E-02
227.670	1.59041600	5.43942E-02
228.200	1.59051497	5.43633E-02
228.731	1.59061588	5.43320E-02
229.265	1.59071873	5.43002E-02
229.802	1.59082353	5.42678E-02
230.341	1.59093034	5.42345E-02
230.883	1.59103923	5.42002E-02
231.427	1.59115030	5.41648E-02
231.974	1.59126362	5.41281E-02
232.524	1.59137926	5.40901E-02
233.076	1.59149729	5.40507E-02
233.630	1.59161773	5.40099E-02
234.188	1.59174056	5.39677E-02
234.748	1.59186574	5.39239E-02
235.310	1.59199318	5.38786E-02
235.876	1.59212276	5.38316E-02
236.444	1.59225431	5.37829E-02
237.015	1.59238768	5.37323E-02
237.588	1.59252269	5.36797E-02
238.165	1.59265916	5.36247E-02
238.744	1.59279695	5.35672E-02
239.326	1.59293592	5.35069E-02
239.911	1.59307598	5.34434E-02
240.498	1.59321707	5.33766E-02
241.089	1.59335917	5.33061E-02
241.683	1.59350229	5.32317E-02
242.279	1.59364646	5.31532E-02
242.878	1.59379171	5.30705E-02
243.481	1.59393807	5.29835E-02
244.086	1.59408556	5.28923E-02
244.695	1.59423414	5.27969E-02
245.306	1.59438374	5.26973E-02
245.921	1.59453423	5.25939E-02
246.538	1.59468541	5.24866E-02
247.159	1.59483701	5.23758E-02
247.783	1.59498871	5.22616E-02
248.410	1.59514013	5.21441E-02
249.040	1.59529085	5.20236E-02
249.673	1.59544043	5.19000E-02
250.310	1.59558842	5.17734E-02
250.950	1.59573439	5.16439E-02
251.593	1.59587793	5.15114E-02
252.239	1.59601868	5.13758E-02
252.889	1.59615634	5.12370E-02
253.542	1.59629068	5.10951E-02
254.199	1.59642152	5.09498E-02
254.858	1.59654878	5.08012E-02
255.522	1.59667241	5.06493E-02
256.189	1.59679243	5.04942E-02
256.859	1.59690890	5.03360E-02
257.533	1.59702190	5.01748E-02
258.210	1.59713154	5.00109E-02
258.891	1.59723791	4.98447E-02
259.576	1.59734110	4.96765E-02
260.264	1.59744117	4.95068E-02
260.956	1.59753814	4.93358E-02
261.651	1.59763202	4.91642E-02
262.350	1.59772277	4.89922E-02
263.053	1.59781034	4.88204E-02
263.760	1.59789465	4.86491E-02
264.471	1.59797560	4.84786E-02
265.185	1.59805311	4.83092E-02
265.903	1.59812708	4.81413E-02
266.625	1.59819746	4.79748E-02
267.352	1.59826422	4.78101E-02
268.082	1.59832733	4.76473E-02
268.816	1.59838684	4.74864E-02
269.554	1.59844282	4.73275E-02
270.296	1.59849535	4.71706E-02
271.042	1.59854458	4.70158E-02
271.793	1.59859067	4.68631E-02
272.547	1.59863378	4.67127E-02
273.306	1.59867411	4.65644E-02
274.069	1.59871185	4.64183E-02
274.836	1.59874719	4.62746E-02
275.608	1.59878034	4.61332E-02
276.384	1.59881148	4.59941E-02
277.164	1.59884079	4.58574E-02
277.949	1.59886847	4.57231E-02
278.738	1.59889471	4.55911E-02
279.532	1.59891968	4.54615E-02
280.330	1.59894357	4.53342E-02
281.133	1.59896660	4.52093E-02
281.940	1.59898896	4.50866E-02
282.752	1.59901087	4.49661E-02
283.569	1.59903253	4.48479E-02
284.390	1.59905417	4.47319E-02
285.216	1.59907598	4.46182E-02
286.047	1.59909816	4.45067E-02
286.883	1.59912088	4.43976E-02
287.724	1.59914428	4.42909E-02
288.570	1.59916846	4.41867E-02
289.421	1.59919351	4.40851E-02
290.276	1.59921945	4.39861E-02
291.137	1.59924627	4.38898E-02
292.003	1.59927394	4.37962E-02
292.874	1.59930238	4.37054E-02
293.751	1.59933150	4.36173E-02
294.632	1.59936120	4.35319E-02
295.519	1.59939137	4.34490E-02
296.411	1.59942192	4.33685E-02
297.309	1.59945276	4.32902E-02
298.212	1.59948386	4.32140E-02
299.121	1.59951520	4.31394E-02
300.035	1.59954680	4.30665E-02
300.955	1.59957874	4.29948E-02
301.880	1.59961111	4.29242E-02
302.811	1.59964406	4.28545E-02
303.748	1.59967773	4.27856E-02
304.691	1.59971230	4.27174E-02
305.640	1.59974795	4.26497E-02
306.594	1.59978482	4.25826E-02
307.555	1.59982307	4.25160E-02
308.521	1.59986281	4.24501E-02
309.494	1.59990412	4.23849E-02
310.473	1.59994703	4.23204E-02
311.458	1.59999154	4.22568E-02
312.449	1.60003761	4.21941E-02
313.447	1.60008518	4.21325E-02
314.451	1.60013415	4.20718E-02
315.461	1.60018439	4.20123E-02
316.478	1.60023578	4.19537E-02
317.502	1.60028820	4.18962E-02
318.532	1.60034153	4.18395E-02
319.569	1.60039566	4.17837E-02
320.612	1.60045051	4.17286E-02
321.663	1.60050602	4.16741E-02
322.720	1.60056214	4.16201E-02
323.785	1.60061886	4.15664E-02
324.856	1.60067617	4.15130E-02
325.935	1.60073407	4.14597E-02
327.020	1.60079260	4.14065E-02
328.113	1.60085176	4.13533E-02
329.214	1.60091159	4.13000E-02
330.321	1.60097209	4.12467E-02
331.436	1.60103328	4.11933E-02
332.559	1.60109515	4.11399E-02
333.690	1.60115771	4.10862E-02
334.828	1.60122092	4.10325E-02
335.974	1.60128477	4.09786E-02
337.127	1.60134923	4.09246E-02
338.289	1.60141427	4.08704E-02
339.459	1.60147986	4.08160E-02
340.637	1.60154600	4.07613E-02
341.823	1.60161264	4.07064E-02
343.017	1.60167980	4.06512E-02
344.220	1.60174745	4.05957E-02
345.431	1.60181559	4.05399E-02
346.651	1.60188423	4.04838E-02
347.879	1.60195334	4.04274E-02
349.116	1.60202292	4.03707E-02
350.362	1.60209296	4.03138E-02
351.617	1.60216341	4.02566E-02
352.881	1.60223426	4.01991E-02
354.154	1.60230544	4.01415E-02
355.436	1.60237691	4.00838E-02
356.728	1.60244860	4.00258E-02
358.029	1.60252046	3.99678E-02
359.339	1.60259242	3.99095E-02
360.659	1.60266442	3.98511E-02
361.989	1.60273641	3.97924E-02
363.329	1.60280835	3.97336E-02
364.679	1.60288020	3.96745E-02
366.038	1.60295195	3.96151E-02
367.408	1.60302357	3.95554E-02
368.788	1.60309506	3.94954E-02
370.179	1.60316640	3.94350E-02
371.580	1.60323759	3.93744E-02
372.992	1.60330861	3.93135E-02
374.415	1.60337945	3.92522E-02
375.848	1.60345006	3.91908E-02
377.292	1.60352040	3.91291E-02
378.748	1.60359043	3.90671E-02
380.215	1.60366009	3.90050E-02
381.693	1.60372929	3.89426E-02
383.183	1.60379799	3.88799E-02
384.684	1.60386613	3.88169E-02
386.198	1.60393366	3.87535E-02
387.723	1.60400056	3.86897E-02
389.260	1.60406682	3.86252E-02
390.810	1.60413247	3.85602E-02
392.372	1.60419756	3.84944E-02
393.947	1.60426217	3.84277E-02
395.534	1.60432640	3.83603E-02
397.134	1.60439036	3.82919E-02
398.747	1.60445418	3.82227E-02
400.373	1.60451798	3.81526E-02
402.013	1.60458188	3.80818E-02
403.666	1.60464597	3.80103E-02
405.332	1.60471031	3.79383E-02
407.013	1.60477493	3.78659E-02
408.707	1.60483983	3.77933E-02
410.416	1.60490495	3.77206E-02
412.139	1.60497021	3.76479E-02
413.876	1.60503550	3.75753E-02
415.629	1.60510068	3.75030E-02
417.396	1.60516561	3.74307E-02
419.178	1.60523014	3.73587E-02
420.975	1.60529416	3.72867E-02
422.788	1.60535756	3.72147E-02
424.617	1.60542029	3.71426E-02
426.462	1.60548232	3.70701E-02
428.322	1.60554368	3.69972E-02
430.199	1.60560444	3.69237E-02
432.093	1.60566471	3.68495E-02
434.003	1.60572463	3.67745E-02
435.930	1.60578435	3.66988E-02
437.875	1.60584403	3.66222E-02
439.836	1.60590383	3.65449E-02
441.816	1.60596386	3.64669E-02
443.813	1.60602423	3.63885E-02
445.829	1.60608497	3.63097E-02
447.863	1.60614608	3.62307E-02
449.915	1.60620752	3.61517E-02
451.987	1.60626919	3.60728E-02
454.077	1.60633093	3.59941E-02
456.187	1.60639259	3.59157E-02
458.317	1.60645397	3.58376E-02
460.467	1.60651487	3.57597E-02
462.637	1.60657513	3.56821E-02
464.827	1.60663459	3.56044E-02
467.038	1.60669313	3.55265E-02
469.271	1.60675071	3.54482E-02
471.525	1.60680730	3.53693E-02
473.801	1.60686296	3.52895E-02
476.098	1.60691780	3.52086E-02
478.419	1.60697196	3.51265E-02
480.761	1.60702565	3.50430E-02
483.127	1.60707907	3.49580E-02
485.517	1.60713245	3.48714E-02
487.930	1.60718604	3.47833E-02
490.367	1.60724003	3.46938E-02
492.829	1.60729463	3.46028E-02
495.315	1.60734998	3.45107E-02
497.827	1.60740621	3.44174E-02
500.364	1.60746339	3.43232E-02
502.928	1.60752155	3.42282E-02
505.517	1.60758071	3.41327E-02
508.134	1.60764083	3.40366E-02
510.778	1.60770187	3.39402E-02
513.449	1.60776379	3.38435E-02
516.149	1.60782653	3.37466E-02
518.877	1.60789005	3.36494E-02
521.634	1.60795432	3.35521E-02
524.420	1.60801932	3.34546E-02
527.237	1.60808506	3.33569E-02
530.084	1.60815156	3.32591E-02
532.961	1.60821884	3.31612E-02
535.871	1.60828694	3.30632E-02
538.812	1.60835591	3.29652E-02
541.785	1.60842578	3.28672E-02
544.792	1.60849660	3.27694E-02
547.832	1.60856838	3.26717E-02
550.906	1.60864113	3.25744E-02
554.015	1.60871485	3.24776E-02
557.159	1.60878951	3.23812E-02
560.340	1.60886509	3.22856E-02
563.556	1.60894153	3.21906E-02
566.810	1.60901879	3.20965E-02
570.102	1.60909679	3.20034E-02
573.432	1.60917545	3.19112E-02
576.801	1.60925471	3.18202E-02
580.210	1.60933446	3.17302E-02
583.659	1.60941461	3.16415E-02
587.150	1.60949503	3.15540E-02
590.683	1.60957561	3.14678E-02
594.258	1.60965621	3.13828E-02
597.877	1.60973669	3.12990E-02
601.541	1.60981691	3.12164E-02
605.250	1.60989673	3.11349E-02
609.004	1.60997602	3.10543E-02
612.806	1.61005468	3.09745E-02
616.655	1.61013266	3.08951E-02
620.553	1.61020995	3.08160E-02
624.501	1.61028662	3.07368E-02
628.499	1.61036281	3.06573E-02
632.548	1.61043873	3.05772E-02
636.650	1.61051471	3.04961E-02
640.806	1.61059113	3.04140E-02
645.016	1.61066844	3.03307E-02
649.282	1.61074714	3.02461E-02
653.605	1.61082776	3.01604E-02
657.986	1.61091082	3.00738E-02
662.426	1.61099680	2.99865E-02
666.926	1.61108612	2.98990E-02
671.488	1.61117911	2.98117E-02
676.112	1.61127595	2.97253E-02
680.801	1.61137675	2.96403E-02
685.555	1.61148144	2.95573E-02
690.376	1.61158986	2.94768E-02
695.265	1.61170173	2.93992E-02
700.225	1.61181671	2.93248E-02
705.255	1.61193443	2.92538E-02
710.358	1.61205452	2.91863E-02
715.536	1.61217667	2.91220E-02
720.789	1.61230067	2.90609E-02
726.120	1.61242643	2.90026E-02
731.531	1.61255404	2.89469E-02
737.023	1.61268375	2.88933E-02
742.598	1.61281595	2.88418E-02
748.258	1.61295121	2.87921E-02
754.005	1.61309018	2.87443E-02
759.841	1.61323355	2.86988E-02
765.768	1.61338204	2.86560E-02
771.788	1.61353623	2.86167E-02
777.904	1.61369658	2.85817E-02
784.117	1.61386333	2.85522E-02
790.431	1.61403644	2.85294E-02
796.846	1.61421558	2.85144E-02
803.367	1.61440011	2.85083E-02
809.996	1.61458910	2.85122E-02
816.734	1.61478138	2.85266E-02
823.586	1.61497560	2.85520E-02
830.554	1.61517038	2.85884E-02
837.641	1.61536435	2.86352E-02
844.849	1.61555633	2.86916E-02
852.183	1.61574542	2.87565E-02
859.645	1.61593112	2.88284E-02
867.239	1.61611341	2.89056E-02
874.969	1.61629280	2.89865E-02
882.837	1.61647034	2.90695E-02
890.848	1.61664759	2.91535E-02
899.006	1.61682652	2.92376E-02
907.315	1.61700941	2.93215E-02
915.779	1.61719868	2.94055E-02
924.402	1.61739672	2.94908E-02
933.189	1.61760569	2.95789E-02
942.145	1.61782738	2.96719E-02
951.274	1.61806302	2.97727E-02
960.582	1.61831319	2.98839E-02
970.074	1.61857777	3.00086E-02
979.755	1.61885593	3.01496E-02
989.632	1.61914623	3.03094E-02
