Material: resists / Nanoscribe IP-S / Mavrona-uncured
Optical constants. E. Mavrona, A. Theodosi, K. Mackosz, E. Perivolari, I. Utke, J. Michler, J. Schwiedrzik, M. Kafesaki, O. Tsilipakos, A. Xomalis. Refractive index measurement of IP-S and IP-Dip photoresists at THz frequencies and validation via 3D photonic metamaterials made by direct laser writing. Opt. Mater. Express, 13, 3355-3364 (2023) (Numerical data kindly provided by Angelos Xomalis)
Comments: Nanoscribe IP-S photoresist for direct laser writing. Uncured.
wavelength (um)	n	k
199.861	1.60762593	6.52135E-02
200.268	1.60762790	6.51852E-02
200.678	1.60763225	6.51563E-02
201.089	1.60763900	6.51271E-02
201.501	1.60764813	6.50977E-02
201.916	1.60765956	6.50683E-02
202.332	1.60767316	6.50389E-02
202.750	1.60768875	6.50098E-02
203.169	1.60770614	6.49810E-02
203.591	1.60772508	6.49525E-02
204.014	1.60774538	6.49242E-02
204.439	1.60776681	6.48962E-02
204.865	1.60778922	6.48682E-02
205.294	1.60781249	6.48401E-02
205.724	1.60783656	6.48117E-02
206.156	1.60786142	6.47828E-02
206.590	1.60788714	6.47533E-02
207.025	1.60791382	6.47229E-02
207.463	1.60794162	6.46917E-02
207.902	1.60797072	6.46595E-02
208.344	1.60800130	6.46264E-02
208.787	1.60803354	6.45924E-02
209.232	1.60806760	6.45578E-02
209.679	1.60810361	6.45225E-02
210.127	1.60814163	6.44869E-02
210.578	1.60818169	6.44512E-02
211.031	1.60822376	6.44155E-02
211.485	1.60826776	6.43801E-02
211.942	1.60831356	6.43451E-02
212.400	1.60836101	6.43106E-02
212.861	1.60840995	6.42767E-02
213.324	1.60846020	6.42433E-02
213.788	1.60851161	6.42105E-02
214.255	1.60856406	6.41782E-02
214.723	1.60861748	6.41461E-02
215.194	1.60867181	6.41143E-02
215.667	1.60872709	6.40824E-02
216.142	1.60878337	6.40505E-02
216.618	1.60884076	6.40182E-02
217.097	1.60889941	6.39857E-02
217.579	1.60895948	6.39528E-02
218.062	1.60902113	6.39194E-02
218.547	1.60908455	6.38857E-02
219.035	1.60914988	6.38516E-02
219.525	1.60921723	6.38174E-02
220.017	1.60928670	6.37830E-02
220.511	1.60935833	6.37486E-02
221.007	1.60943213	6.37143E-02
221.506	1.60950806	6.36802E-02
222.007	1.60958609	6.36463E-02
222.510	1.60966613	6.36126E-02
223.016	1.60974812	6.35792E-02
223.523	1.60983198	6.35458E-02
224.034	1.60991767	6.35125E-02
224.546	1.61000516	6.34791E-02
225.061	1.61009445	6.34454E-02
225.578	1.61018559	6.34112E-02
226.097	1.61027864	6.33765E-02
226.619	1.61037371	6.33410E-02
227.144	1.61047091	6.33046E-02
227.670	1.61057038	6.32673E-02
228.200	1.61067225	6.32289E-02
228.731	1.61077664	6.31894E-02
229.265	1.61088364	6.31487E-02
229.802	1.61099334	6.31070E-02
230.341	1.61110577	6.30640E-02
230.883	1.61122093	6.30199E-02
231.427	1.61133880	6.29747E-02
231.974	1.61145931	6.29282E-02
232.524	1.61158239	6.28804E-02
233.076	1.61170792	6.28312E-02
233.630	1.61183580	6.27805E-02
234.188	1.61196592	6.27281E-02
234.748	1.61209817	6.26739E-02
235.310	1.61223249	6.26176E-02
235.876	1.61236878	6.25590E-02
236.444	1.61250702	6.24979E-02
237.015	1.61264716	6.24342E-02
237.588	1.61278919	6.23675E-02
238.165	1.61293308	6.22979E-02
238.744	1.61307881	6.22251E-02
239.326	1.61322632	6.21491E-02
239.911	1.61337556	6.20699E-02
240.498	1.61352639	6.19874E-02
241.089	1.61367867	6.19016E-02
241.683	1.61383218	6.18125E-02
242.279	1.61398669	6.17202E-02
242.878	1.61414188	6.16246E-02
243.481	1.61429742	6.15258E-02
244.086	1.61445295	6.14236E-02
244.695	1.61460809	6.13181E-02
245.306	1.61476245	6.12091E-02
245.921	1.61491567	6.10965E-02
246.538	1.61506740	6.09801E-02
247.159	1.61521732	6.08599E-02
247.783	1.61536516	6.07357E-02
248.410	1.61551069	6.06073E-02
249.040	1.61565372	6.04747E-02
249.673	1.61579410	6.03378E-02
250.310	1.61593171	6.01967E-02
250.950	1.61606646	6.00514E-02
251.593	1.61619826	5.99021E-02
252.239	1.61632702	5.97489E-02
252.889	1.61645267	5.95922E-02
253.542	1.61657507	5.94321E-02
254.199	1.61669411	5.92691E-02
254.858	1.61680962	5.91035E-02
255.522	1.61692144	5.89357E-02
256.189	1.61702935	5.87660E-02
256.859	1.61713316	5.85947E-02
257.533	1.61723267	5.84223E-02
258.210	1.61732768	5.82489E-02
258.891	1.61741804	5.80748E-02
259.576	1.61750361	5.79004E-02
260.264	1.61758433	5.77256E-02
260.956	1.61766016	5.75509E-02
261.651	1.61773114	5.73763E-02
262.350	1.61779736	5.72020E-02
263.053	1.61785895	5.70282E-02
263.760	1.61791609	5.68551E-02
264.471	1.61796900	5.66830E-02
265.185	1.61801791	5.65122E-02
265.903	1.61806304	5.63429E-02
266.625	1.61810463	5.61754E-02
267.352	1.61814287	5.60101E-02
268.082	1.61817794	5.58474E-02
268.816	1.61820996	5.56874E-02
269.554	1.61823905	5.55306E-02
270.296	1.61826527	5.53771E-02
271.042	1.61828866	5.52272E-02
271.793	1.61830925	5.50809E-02
272.547	1.61832705	5.49384E-02
273.306	1.61834212	5.47996E-02
274.069	1.61835451	5.46645E-02
274.836	1.61836433	5.45330E-02
275.608	1.61837171	5.44049E-02
276.384	1.61837687	5.42801E-02
277.164	1.61838005	5.41584E-02
277.949	1.61838155	5.40395E-02
278.738	1.61838171	5.39235E-02
279.532	1.61838088	5.38102E-02
280.330	1.61837946	5.36995E-02
281.133	1.61837779	5.35914E-02
281.940	1.61837621	5.34861E-02
282.752	1.61837504	5.33836E-02
283.569	1.61837450	5.32841E-02
284.390	1.61837477	5.31877E-02
285.216	1.61837597	5.30945E-02
286.047	1.61837812	5.30048E-02
286.883	1.61838121	5.29185E-02
287.724	1.61838515	5.28358E-02
288.570	1.61838983	5.27567E-02
289.421	1.61839509	5.26810E-02
290.276	1.61840081	5.26087E-02
291.137	1.61840685	5.25395E-02
292.003	1.61841312	5.24733E-02
292.874	1.61841959	5.24096E-02
293.751	1.61842626	5.23481E-02
294.632	1.61843323	5.22886E-02
295.519	1.61844064	5.22307E-02
296.411	1.61844870	5.21741E-02
297.309	1.61845767	5.21186E-02
298.212	1.61846785	5.20640E-02
299.121	1.61847955	5.20102E-02
300.035	1.61849305	5.19573E-02
300.955	1.61850865	5.19051E-02
301.880	1.61852657	5.18540E-02
302.811	1.61854697	5.18039E-02
303.748	1.61856997	5.17553E-02
304.691	1.61859559	5.17082E-02
305.640	1.61862376	5.16628E-02
306.594	1.61865436	5.16195E-02
307.555	1.61868720	5.15782E-02
308.521	1.61872204	5.15392E-02
309.494	1.61875862	5.15023E-02
310.473	1.61879666	5.14676E-02
311.458	1.61883590	5.14350E-02
312.449	1.61887610	5.14043E-02
313.447	1.61891708	5.13751E-02
314.451	1.61895870	5.13474E-02
315.461	1.61900088	5.13208E-02
316.478	1.61904360	5.12950E-02
317.502	1.61908691	5.12697E-02
318.532	1.61913090	5.12448E-02
319.569	1.61917571	5.12199E-02
320.612	1.61922150	5.11951E-02
321.663	1.61926843	5.11702E-02
322.720	1.61931669	5.11451E-02
323.785	1.61936642	5.11198E-02
324.856	1.61941774	5.10945E-02
325.935	1.61947076	5.10692E-02
327.020	1.61952553	5.10439E-02
328.113	1.61958205	5.10189E-02
329.214	1.61964031	5.09941E-02
330.321	1.61970027	5.09697E-02
331.436	1.61976183	5.09456E-02
332.559	1.61982491	5.09221E-02
333.690	1.61988941	5.08990E-02
334.828	1.61995525	5.08763E-02
335.974	1.62002233	5.08540E-02
337.127	1.62009061	5.08321E-02
338.289	1.62016004	5.08104E-02
339.459	1.62023061	5.07889E-02
340.637	1.62030232	5.07675E-02
341.823	1.62037519	5.07463E-02
343.017	1.62044926	5.07251E-02
344.220	1.62052458	5.07039E-02
345.431	1.62060118	5.06828E-02
346.651	1.62067910	5.06618E-02
347.879	1.62075837	5.06410E-02
349.116	1.62083899	5.06204E-02
350.362	1.62092094	5.06001E-02
351.617	1.62100420	5.05801E-02
352.881	1.62108872	5.05606E-02
354.154	1.62117441	5.05416E-02
355.436	1.62126121	5.05231E-02
356.728	1.62134902	5.05052E-02
358.029	1.62143775	5.04879E-02
359.339	1.62152732	5.04712E-02
360.659	1.62161763	5.04551E-02
361.989	1.62170862	5.04396E-02
363.329	1.62180023	5.04245E-02
364.679	1.62189238	5.04100E-02
366.038	1.62198505	5.03959E-02
367.408	1.62207818	5.03823E-02
368.788	1.62217175	5.03691E-02
370.179	1.62226572	5.03563E-02
371.580	1.62236006	5.03438E-02
372.992	1.62245473	5.03317E-02
374.415	1.62254970	5.03199E-02
375.848	1.62264492	5.03083E-02
377.292	1.62274038	5.02970E-02
378.748	1.62283602	5.02859E-02
380.215	1.62293184	5.02750E-02
381.693	1.62302782	5.02641E-02
383.183	1.62312396	5.02532E-02
384.684	1.62322030	5.02422E-02
386.198	1.62331687	5.02311E-02
387.723	1.62341373	5.02198E-02
389.260	1.62351097	5.02082E-02
390.810	1.62360869	5.01963E-02
392.372	1.62370700	5.01842E-02
393.947	1.62380600	5.01719E-02
395.534	1.62390580	5.01593E-02
397.134	1.62400649	5.01467E-02
398.747	1.62410815	5.01340E-02
400.373	1.62421082	5.01215E-02
402.013	1.62431451	5.01093E-02
403.666	1.62441919	5.00976E-02
405.332	1.62452480	5.00864E-02
407.013	1.62463124	5.00759E-02
408.707	1.62473839	5.00663E-02
410.416	1.62484609	5.00575E-02
412.139	1.62495418	5.00496E-02
413.876	1.62506248	5.00425E-02
415.629	1.62517085	5.00363E-02
417.396	1.62527913	5.00308E-02
419.178	1.62538721	5.00259E-02
420.975	1.62549503	5.00214E-02
422.788	1.62560253	5.00172E-02
424.617	1.62570973	5.00130E-02
426.462	1.62581668	5.00088E-02
428.322	1.62592345	5.00044E-02
430.199	1.62603019	4.99996E-02
432.093	1.62613702	4.99944E-02
434.003	1.62624410	4.99887E-02
435.930	1.62635161	4.99825E-02
437.875	1.62645970	4.99758E-02
439.836	1.62656851	4.99688E-02
441.816	1.62667816	4.99615E-02
443.813	1.62678875	4.99540E-02
445.829	1.62690034	4.99466E-02
447.863	1.62701294	4.99393E-02
449.915	1.62712654	4.99323E-02
451.987	1.62724109	4.99258E-02
454.077	1.62735652	4.99199E-02
456.187	1.62747269	4.99147E-02
458.317	1.62758949	4.99104E-02
460.467	1.62770674	4.99069E-02
462.637	1.62782429	4.99044E-02
464.827	1.62794195	4.99029E-02
467.038	1.62805955	4.99022E-02
469.271	1.62817691	4.99025E-02
471.525	1.62829385	4.99035E-02
473.801	1.62841023	4.99052E-02
476.098	1.62852592	4.99074E-02
478.419	1.62864080	4.99099E-02
480.761	1.62875480	4.99126E-02
483.127	1.62886789	4.99152E-02
485.517	1.62898007	4.99175E-02
487.930	1.62909138	4.99193E-02
490.367	1.62920193	4.99204E-02
492.829	1.62931185	4.99206E-02
495.315	1.62942134	4.99196E-02
497.827	1.62953061	4.99175E-02
500.364	1.62963994	4.99140E-02
502.928	1.62974959	4.99092E-02
505.517	1.62985986	4.99031E-02
508.134	1.62997103	4.98958E-02
510.778	1.63008336	4.98875E-02
513.449	1.63019709	4.98784E-02
516.149	1.63031239	4.98687E-02
518.877	1.63042937	4.98587E-02
521.634	1.63054810	4.98489E-02
524.420	1.63066855	4.98394E-02
527.237	1.63079064	4.98307E-02
530.084	1.63091422	4.98229E-02
532.961	1.63103908	4.98164E-02
535.871	1.63116500	4.98113E-02
538.812	1.63129172	4.98077E-02
541.785	1.63141899	4.98056E-02
544.792	1.63154657	4.98051E-02
547.832	1.63167426	4.98060E-02
550.906	1.63180193	4.98082E-02
554.015	1.63192948	4.98115E-02
557.159	1.63205689	4.98159E-02
560.340	1.63218420	4.98211E-02
563.556	1.63231149	4.98271E-02
566.810	1.63243890	4.98339E-02
570.102	1.63256656	4.98413E-02
573.432	1.63269463	4.98495E-02
576.801	1.63282323	4.98587E-02
580.210	1.63295242	4.98688E-02
583.659	1.63308222	4.98803E-02
587.150	1.63321259	4.98932E-02
590.683	1.63334338	4.99077E-02
594.258	1.63347439	4.99240E-02
597.877	1.63360538	4.99422E-02
601.541	1.63373607	4.99621E-02
605.250	1.63386616	4.99836E-02
609.004	1.63399543	5.00066E-02
612.806	1.63412369	5.00305E-02
616.655	1.63425089	5.00550E-02
620.553	1.63437711	5.00795E-02
624.501	1.63450259	5.01035E-02
628.499	1.63462774	5.01265E-02
632.548	1.63475316	5.01481E-02
636.650	1.63487956	5.01679E-02
640.806	1.63500780	5.01859E-02
645.016	1.63513878	5.02021E-02
649.282	1.63527343	5.02169E-02
653.605	1.63541259	5.02307E-02
657.986	1.63555701	5.02444E-02
662.426	1.63570722	5.02588E-02
666.926	1.63586356	5.02750E-02
671.488	1.63602608	5.02941E-02
676.112	1.63619456	5.03172E-02
680.801	1.63636850	5.03453E-02
685.555	1.63654719	5.03792E-02
690.376	1.63672974	5.04194E-02
695.265	1.63691512	5.04663E-02
700.225	1.63710233	5.05197E-02
705.255	1.63729041	5.05794E-02
710.358	1.63747856	5.06446E-02
715.536	1.63766625	5.07145E-02
720.789	1.63785323	5.07881E-02
726.120	1.63803964	5.08642E-02
731.531	1.63822598	5.09416E-02
737.023	1.63841313	5.10196E-02
742.598	1.63860227	5.10972E-02
748.258	1.63879485	5.11742E-02
754.005	1.63899247	5.12505E-02
759.841	1.63919674	5.13267E-02
765.768	1.63940923	5.14035E-02
771.788	1.63963124	5.14824E-02
777.904	1.63986376	5.15650E-02
784.117	1.64010734	5.16532E-02
790.431	1.64036205	5.17490E-02
796.846	1.64062741	5.18545E-02
803.367	1.64090245	5.19714E-02
809.996	1.64118574	5.21013E-02
816.734	1.64147551	5.22451E-02
823.586	1.64176977	5.24035E-02
830.554	1.64206651	5.25762E-02
837.641	1.64236385	5.27625E-02
844.849	1.64266021	5.29612E-02
852.183	1.64295453	5.31703E-02
859.645	1.64324634	5.33879E-02
867.239	1.64353592	5.36116E-02
874.969	1.64382426	5.38394E-02
882.837	1.64411311	5.40692E-02
890.848	1.64440485	5.42996E-02
899.006	1.64470235	5.45300E-02
907.315	1.64500878	5.47604E-02
915.779	1.64532736	5.49917E-02
924.402	1.64566113	5.52257E-02
933.189	1.64601270	5.54651E-02
942.145	1.64638400	5.57131E-02
951.274	1.64677615	5.59734E-02
960.582	1.64718933	5.62499E-02
970.074	1.64762276	5.65464E-02
979.755	1.64807476	5.68664E-02
989.632	1.64854287	5.72127E-02
