Material: main / TiO2 / Franta
Optical constants. D. Franta, D. Nečas, I. Ohlídal. A. Giglia. Dispersion model for optical thin films applicable in wide spectral range Proc. SPIE 9628, 96281U (2015) (Numerical data kindly provided by Daniel Franta)
Comments: Film TiO2; Deposited by e-beam evaporation on c-Si; 99.6 nm thick film with an amorphous (very fine polycrystalline) structure; Heterogenous data processing combining ellipsometric and spectrophotometric measurements; Room temperature.
Conditions: {"film_thickness": 9.96e-08, "substrate": "c-Si"}
wavelength (um)	n	k
0.114114	0.9542948024342	0.7247602836622
0.116772	0.9584285750096	0.7772043513019
0.119492	0.9671898903006	0.830465105553
0.122276	0.9806813269954	0.8846035325064
0.125124	0.9992057775896	0.9395990889648
0.128038	1.023250801429	0.9953047734299
0.131021	1.053472912153	1.051378253409
0.134073	1.090662777369	1.107187306113
0.137196	1.135666831481	1.161691732085
0.140391	1.189232398416	1.213317613064
0.143661	1.251740671415	1.259868687354
0.147008	1.322813124147	1.298564753117
0.150432	1.400849917482	1.326338611692
0.153936	1.482694850312	1.34049915682
0.157522	1.563749291096	1.339691369656
0.161191	1.638786442579	1.324765778607
0.164945	1.703307709274	1.298978116817
0.168787	1.754787873054	1.267229295001
0.172719	1.79313060895	1.23471194955
0.176742	1.820216329349	1.205704760639
0.180859	1.838989512773	1.18300045173
0.185072	1.852614231165	1.167946925505
0.189383	1.863955314439	1.160807329658
0.193794	1.875377132596	1.161168611064
0.198308	1.888744200652	1.168262911855
0.202927	1.905513758719	1.181172453238
0.207654	1.926851959349	1.198936735825
0.212491	1.953741185383	1.220590944248
0.21744	1.987066998161	1.2451588439
0.222505	2.027682341821	1.271614555975
0.227688	2.076448545397	1.298820010603
0.232991	2.134250354459	1.325439716556
0.238418	2.201976905018	1.349832054673
0.243972	2.280452385685	1.369917575536
0.249655	2.370289303598	1.383032426206
0.25547	2.471625999596	1.385794216359
0.261421	2.583706718019	1.374045618945
0.26751	2.704288312949	1.343001750429
0.273741	2.828950758761	1.287793709855
0.280117	2.950584655638	1.204600030528
0.286642	3.059579091371	1.092345207445
0.293319	3.145277342197	0.9544182761738
0.300151	3.198705895172	0.7992943591502
0.307142	3.21547066176	0.6390990217795
0.314297	3.197102723438	0.4864506411256
0.321618	3.150044563633	0.3512841278244
0.329109	3.083144815099	0.2392612635923
0.336775	3.005233016901	0.1520136862429
0.34462	2.923721527988	0.08838825994487
0.352647	2.844287045313	0.04578666694492
0.360861	2.771410275016	0.02113599074506
0.369266	2.709596655865	0.009631552376223
0.377868	2.658912138541	0.004458843513328
0.386669	2.616870113155	0.002097610273136
0.395676	2.581348144632	0.001003017888074
0.404893	2.550804548226	0.0004875399844809
0.414324	2.524149315268	0.0002408845204222
0.423975	2.500604895558	0.0001209606815477
0.43385	2.479604488812	6.172050793547e-05
0.443956	2.460724278079	3.199343333767e-05
0.454297	2.443639298508	1.684315122651e-05
0.464879	2.428094586783	9.003153570303e-06
0.475707	2.413886013133	4.88480399388e-06
0.486788	2.400847265421	2.689357833174e-06
0.498127	2.388840797085	1.5019711886e-06
0.50973	2.377751379674	8.506311269264e-07
0.521603	2.367481405273	4.883492222981e-07
0.533752	2.35794739171	2.840872063284e-07
0.546185	2.349077333115	1.673758046032e-07
0.558907	2.340808657261	9.981228067833e-08
0.571926	2.333086626932	6.019516365553e-08
0.585248	2.325863072057	3.666969531874e-08
0.59888	2.319095372184	2.252429364357e-08
0.61283	2.312745631141	1.39126267805e-08
0.627104	2.30678000121	8.603978526335e-09
0.641712	2.301168124925	5.289450223133e-09
0.656659	2.295882670406	3.192216990809e-09
0.671955	2.290898941794	1.84605922586e-09
0.687606	2.286194550483	9.680932545103e-10
0.703623	2.281749135985	3.848263329512e-10
0.720012	2.277544127534	1.526930201152e-239
0.736783	2.273562539895	4.380628319758e-228
0.753945	2.269788796456	3.66982786562e-217
0.771507	2.266208576395	9.49816903171e-207
0.789478	2.262808681848	8.014927804022e-197
0.807867	2.259576921578	2.32136545791e-187
0.826685	2.256502009004	2.42368593149e-178
0.845941	2.253573472372	9.559490745985e-170
0.865645	2.250781575412	1.489467906968e-161
0.885809	2.248117246974	9.567433083644e-154
0.906442	2.245572018431	2.638851598766e-146
0.927555	2.24313796781	3.249171840476e-139
0.949161	2.240807669769	1.853461070939e-132
0.97127	2.238574150695	5.07491708829e-126
0.993894	2.23643084822	6.899071713967e-120
1.01704	2.234371574694	4.809298403021e-114
1.04073	2.232390484057	1.772871010749e-108
1.06498	2.230482041734	3.559120118378e-103
1.08978	2.228640997214	4.001864040159e-98
1.11517	2.226862358966	2.588600078433e-93
1.14114	2.22514137143	9.882097656708e-89
1.16772	2.223473493894	2.281430973743e-84
1.19492	2.221854380976	3.260234081449e-80
1.22276	2.220279864521	2.948637752621e-76
1.25124	2.218745936834	1.723982183971e-72
1.28038	2.217248735056	6.649208006555e-69
1.31021	2.215784526551	1.724719837893e-65
1.34073	2.214349695183	3.064652320642e-62
1.37196	2.212940728232	3.79659784312e-59
1.40391	2.211554204385	3.334619030754e-56
1.43661	2.210186781852	2.110037830941e-53
1.47008	2.208835187485	9.767030868502e-51
1.50432	2.207496205961	3.355794047803e-48
1.53936	2.206166669522	8.678218464445e-46
1.57522	2.20484344834	1.711723788445e-43
1.61191	2.203523440382	2.60798837123e-41
1.64945	2.202203562381	3.106670877127e-39
1.68787	2.200880740484	2.926917323359e-37
1.72719	2.199551900852	2.205105691478e-35
1.76742	2.198213960892	1.342489335462e-33
1.80859	2.196863820189	6.671201627842e-32
1.85072	2.195498351185	2.731860304788e-30
1.89383	2.194114390094	9.303207614973e-29
1.93794	2.192708728035	2.657683298022e-27
1.98308	2.19127810071	6.422035224131e-26
2.02927	2.189819179683	1.323054756541e-24
2.07654	2.188328561799	2.34151535743e-23
2.12491	2.186802759441	3.585564120945e-22
2.1744	2.185238189146	4.78346109066e-21
2.22505	2.183631161417	5.596243043091e-20
2.27688	2.181977868299	5.777425580274e-19
2.32991	2.180274371785	5.294733679569e-18
2.38418	2.178516590578	4.332062022788e-17
2.43972	2.176700286413	3.181563521529e-16
2.49655	2.17482104967	2.108276282108e-15
2.5547	2.172874284449	1.266767835067e-14
2.61421	2.170855190839	6.934121394876e-14
2.6751	2.168758747935	3.473428564036e-13
2.73741	2.166579693145	1.599024236313e-12
2.80117	2.164312503651	6.792856613903e-12
2.86642	2.161951371125	2.673248092248e-11
2.93319	2.159490177618	9.781955308371e-11
3.00151	2.156922466498	3.340003590604e-10
3.07142	2.154241413006	1.067743241522e-09
3.14297	2.151439788304	3.206128818803e-09
3.21618	2.148509919573	9.070263360323e-09
3.29109	2.145443644597	2.424667118043e-08
3.36775	2.142232257824	6.141676856835e-08
3.4462	2.138866450618	1.478009697906e-07
3.52647	2.135336237118	3.387833984359e-07
3.60861	2.131630870361	7.414283210662e-07
3.69266	2.127738748988	1.552805965082e-06
3.77868	2.123647316232	3.119020809095e-06
3.86669	2.119342944965	6.021158132235e-06
3.95676	2.114810843988	1.11935462475e-05
4.04893	2.110034960202	2.007733611683e-05
4.14324	2.104997923931	3.480819661476e-05
4.23975	2.099681031329	5.84310389889e-05
4.3385	2.094064300247	9.512769104064e-05
4.43956	2.088126565824	0.0001504363526424
4.54297	2.081845680664	0.0002314357827229
4.64879	2.075198777169	0.0003468638651724
4.75707	2.068162539639	0.0005071406048661
4.86788	2.060713563595	0.0007242702847846
4.98127	2.05282861603	0.001011606465243
5.0973	2.044484890325	0.001383475753097
5.21603	2.035660092842	0.001854670567058
5.33752	2.026332427851	0.002439835398735
5.46185	2.01648029117	0.00315278386389
5.58907	2.006081840643	0.00400579280992
5.71926	1.995114220279	0.005008924904444
5.85248	1.983552570842	0.006169430595206
5.9888	1.97136882437	0.007491275332612
6.1283	1.958530201734	0.00897482921165
6.27104	1.944997516101	0.01061674382679
6.41712	1.930723293665	0.01241002784941
6.56659	1.915649514029	0.01434432123496
6.71955	1.899705285636	0.01640635465115
6.87606	1.882803847713	0.01858058298713
7.03623	1.864839216777	0.02084999009413
7.20012	1.845681763417	0.02319712733081
7.36783	1.825172238879	0.02560560637713
7.53945	1.803113850766	0.02806261998675
7.71507	1.779260609019	0.03056376220324
7.89478	1.753302489769	0.03312247285743
8.07867	1.724846043697	0.03578784509663
8.26685	1.693394410022	0.03867568647958
8.45941	1.658330903882	0.04201799630214
8.65645	1.618916966322	0.04623434372727
8.85809	1.574316729462	0.05202486840909
9.06442	1.52366483322	0.06047928230034
9.27555	1.466192612342	0.0731908813976
9.49161	1.401435563484	0.09235865248867
9.7127	1.329554236637	0.1208476921394
9.93894	1.251824586138	0.16213437234
10.1704	1.171348961044	0.2199351407604
10.4073	1.093825089871	0.2970740951884
10.6498	1.027413175057	0.3931626475939
10.8978	0.9799285865029	0.5022696942458
11.1517	0.9540983799398	0.6141934078187
11.4114	0.9460321097938	0.7196226982742
11.6772	0.9483062032748	0.8136876010075
11.9492	0.953275459254	0.895821157937
12.2276	0.9544804421608	0.9684196090421
12.5124	0.9469822802444	1.035967632915
12.8038	0.9276208809744	1.104746707229
13.1021	0.8957386173739	1.182731293649
13.4073	0.854583045809	1.278949185935
13.7196	0.8127786393695	1.401232782746
14.0391	0.7837824944208	1.552222964732
14.3661	0.7816886288938	1.726296345057
14.7008	0.8156311503043	1.910682749553
15.0432	0.8867505332239	2.089981262852
15.3936	0.9886350906376	2.250922729746
15.7522	1.10995047093	2.38563381312
16.1191	1.238050108022	2.492977037749
16.4945	1.362591575966	2.577850407047
16.8787	1.47811844261	2.648720056004
17.2719	1.584760083596	2.71423631272
17.6742	1.68685859137	2.780247719138
18.0859	1.790274268637	2.848405602519
18.5072	1.899749111013	2.916704040983
18.9383	2.017465297875	2.981238260629
19.3794	2.14301059337	3.038044330305
19.8308	2.274209291497	3.084249445784
20.2927	2.408121187933	3.118432790568
20.7654	2.541796197234	3.140467279184
21.2491	2.672694612584	3.151148601428
21.744	2.79882945269	3.151839257388
22.2505	2.918755716835	3.144201886023
22.7688	3.031496790535	3.130042939026
23.2991	3.136471804724	3.111246686906
23.8418	3.233463590477	3.089765209515
24.3972	3.322647115118	3.067623417028
24.9655	3.404678346641	3.046891832093
25.547	3.480816797562	3.029580171463
26.1421	3.553024162446	3.017420956882
26.751	3.623958920707	3.011551115067
27.3741	3.696791555549	3.012155908652
28.0117	3.77481176191	3.018191460282
28.6642	3.860881630257	3.027315494249
29.3319	3.956871454609	3.036106236136
30.0151	4.063247273123	3.040548550487
30.7142	4.178934896271	3.036665512373
31.4297	4.301487129144	3.021128072063
32.1618	4.427484543735	2.991702277301
32.9109	4.553049238656	2.947464755552
33.6775	4.674352548925	2.888790215463
34.462	4.788031629355	2.817162598249
35.2647	4.891471989749	2.734879713723
36.0861	4.982948356254	2.644718100632
36.9266	5.061639723405	2.549610947724
37.7868	5.127546977957	2.452374791174
38.6669	5.181345770693	2.35550452966
39.5676	5.224206130336	2.261042891695
40.4893	5.257605815462	2.170520409366
41.4324	5.283158162559	2.084955161578
42.3975	5.302468348796	2.004897749309
43.385	5.317025381572	1.930505732425
44.3956	5.328131369104	1.861632589745
45.4297	5.336865142278	1.797918591231
46.4879	5.344074313772	1.738874178517
47.5707	5.350388388463	1.683949929705
48.6788	5.356245388828	1.632590411663
49.8127	5.36192529091	1.584271826681
50.973	5.367584975408	1.53852515911
52.1603	5.373291002814	1.494947520597
53.3752	5.379048027878	1.453204709613
54.6185	5.384821899831	1.413027837382
55.8907	5.390557381802	1.374206429648
57.1926	5.396190978633	1.336579859925
58.5248	5.401659644747	1.300028422891
59.888	5.406906228764	1.264464884007
61.283	5.411882470615	1.229826971433
62.7104	5.416550258788	1.196071009978
64.1712	5.420881721181	1.163166720915
65.6659	5.424858589675	1.131093106561
67.1955	5.428471159852	1.099835285166
68.7606	5.431717069593	1.069382122739
70.3623	5.434600044193	1.039724510891
72.0012	5.437128699077	1.010854153827
73.6783	5.439315451071	0.9827627468928
75.3945	5.441175561776	0.9554414495098
77.1507	5.442726318948	0.9288805745607
78.9478	5.443986350896	0.9030694332379
80.7867	5.444975062964	0.8779962886115
82.6685	5.445712182421	0.8536483827284
84.5941	5.446217397166	0.8300120112459
86.5645	5.446510074272	0.8070726266842
88.5809	5.446609045387	0.7848149568158
90.6442	5.446532447486	0.7632231287664
92.7555	5.446297608953	0.7422807924149
94.9161	5.445920972475	0.7219712388705
97.127	5.445418047465	0.7022775114076
99.3894	5.444803386023	0.6831825073484
101.704	5.444090577472	0.6646690701795
104.073	5.443292257258	0.6467200717414
106.498	5.442420126984	0.6293184846673
108.978	5.441484982646	0.6124474455179
111.517	5.440496749042	0.5960903091576
114.114	5.439464518422	0.5802306950364
116.772	5.438396591921	0.5648525260548
119.492	5.437300522726	0.5499400606887
122.276	5.43618315994	0.5354779190517
125.124	5.435050692497	0.5214511035262
