Material: main / CdF2 / Bosomworth-200K
Optical constants. D. R. Bosomworth. Far-infrared optical properties of CaF2, SrF2, BaF2, and CdF2. Phys. Rev., 157, 709 (1967)
Comments: 200 K
Conditions: {"temperature": 200}
wavelength (um)	k
86.957	6.36E-02
87.719	6.30E-02
88.496	6.24E-02
89.286	6.17E-02
90.090	6.11E-02
90.909	6.05E-02
91.743	5.99E-02
92.593	5.93E-02
93.458	5.87E-02
94.340	5.81E-02
95.238	5.74E-02
96.154	5.68E-02
97.087	5.62E-02
98.039	5.56E-02
99.010	5.50E-02
100.00	5.44E-02
101.01	5.37E-02
102.04	5.30E-02
103.09	5.23E-02
104.17	5.17E-02
105.26	5.11E-02
106.38	5.05E-02
107.53	4.98E-02
108.70	4.93E-02
109.89	4.87E-02
111.11	4.80E-02
112.36	4.74E-02
113.64	4.67E-02
114.94	4.61E-02
116.28	4.56E-02
117.65	4.50E-02
119.05	4.45E-02
120.48	4.40E-02
121.95	4.36E-02
123.46	4.31E-02
125.00	4.27E-02
126.58	4.22E-02
128.21	4.18E-02
129.87	4.13E-02
131.58	4.07E-02
133.33	4.02E-02
135.14	3.96E-02
136.99	3.91E-02
138.89	3.85E-02
140.85	3.80E-02
142.86	3.75E-02
144.93	3.69E-02
147.06	3.64E-02
149.25	3.58E-02
151.52	3.52E-02
153.85	3.46E-02
156.25	3.40E-02
158.73	3.35E-02
161.29	3.29E-02
163.93	3.23E-02
166.67	3.17E-02
169.49	3.10E-02
172.41	3.03E-02
175.44	2.96E-02
178.57	2.89E-02
181.82	2.83E-02
185.19	2.76E-02
188.68	2.70E-02
192.31	2.63E-02
196.08	2.55E-02
200.00	2.53E-02
204.08	2.48E-02
208.33	2.40E-02
212.77	2.33E-02
217.39	2.26E-02
222.22	2.17E-02
227.27	2.08E-02
232.56	1.99E-02
238.10	1.90E-02
243.90	1.78E-02
250.00	1.70E-02
256.41	1.62E-02
263.16	1.54E-02
270.27	1.48E-02
277.78	1.42E-02
285.71	1.36E-02
294.12	1.30E-02
303.03	1.25E-02
312.50	1.21E-02
322.58	1.18E-02
333.33	1.14E-02
344.83	1.10E-02
357.14	1.05E-02
370.37	1.02E-02
384.62	9.81E-03
400.00	9.40E-03
416.67	9.09E-03
434.78	8.83E-03
454.55	8.55E-03
476.19	8.23E-03
500.00	7.93E-03
526.32	7.66E-03
555.56	7.38E-03
588.24	7.09E-03
625.00	6.78E-03
666.67	6.53E-03
714.29	6.27E-03
769.23	5.96E-03
833.33	5.59E-03
909.09	5.24E-03
1000.0	4.93E-03
