Material: specs / hoya / E-FEL1
Optical constants. HOYA Zemax catalog 2017-04-01 (obtained from http://www.hoya-opticalworld.com)
Comments: General glass Type
Conditions: {"temperature": 293}
Properties: {"thermal_dispersion": [{"type": "formula A", "coefficients": "1.32417e-06 0.0 0.0 0.0 0.0 0.0"}], "nd": 1.54814, "Vd": 45.82, "glass_code": 548458, "density": [{"value": 2540}], "thermal_expansion": [{"temperature_range": "243 343", "value": 7.9e-06}, {"temperature_range": "293 573", "value": 9.6e-06}], "dPgF": 0.0041, "resistance": {"climatic": 1.0, "stain": 1.0, "acid": 1.0}}
Dispersion formula 3, range 0.36501 1.01398 um, coefficients 2.3534484 -0.010330438 2 0.014097325 -2 0.00087167875 -4 -6.998197e-05 -6 5.7867359e-06 -8
wavelength (um)	k
0.350	4.5963E-06
0.360	1.3236E-06
0.370	4.3041E-07
0.380	1.7427E-07
0.390	1.0414E-07
0.400	6.4307E-08
0.420	5.0514E-08
0.440	5.2919E-08
0.460	4.7899E-08
0.480	3.8389E-08
0.500	3.1959E-08
0.550	1.7542E-08
0.600	1.9137E-08
0.650	3.1129E-08
0.700	1.1152E-08
0.750	5.9713E-09
0.780	6.2101E-09
0.800	6.3694E-09
0.830	6.6082E-09
0.850	6.7675E-09
0.900	7.1656E-09
0.950	7.5636E-09
1.000	7.9617E-09
1.050	8.3598E-09
1.060	8.4394E-09
1.100	8.7579E-09
1.200	9.5541E-09
1.300	1.0350E-08
1.400	2.2304E-08
1.500	2.3897E-08
1.550	4.9437E-08
