Material: specs / hoya / TAF5
Optical constants. HOYA Zemax catalog 2017-04-01 (obtained from http://www.hoya-opticalworld.com)
Comments: Not in a position to accept new order because of discontinuation.
Conditions: {"temperature": 293}
Properties: {"thermal_dispersion": [{"type": "formula A", "coefficients": "4.56416e-06 0.0 0.0 0.0 0.0 0.0"}], "nd": 1.816, "Vd": 46.57, "glass_code": 816466, "glass_status": "special", "density": [{"value": 5060}], "thermal_expansion": [{"temperature_range": "243 343", "value": 6.3e-06}, {"temperature_range": "293 573", "value": 7.7e-06}], "dPgF": -0.0083, "resistance": {"climatic": 1.0, "stain": 2.0, "acid": 3.0}}
Dispersion formula 3, range 0.36501 1.01398 um, coefficients 3.2191571 -0.015310562 2 0.02636257 -2 0.0010534452 -4 -6.1660412e-05 -6 3.9733897e-06 -8
wavelength (um)	k
0.300	9.3393E-06
0.310	6.9404E-06
0.320	4.2290E-06
0.330	2.8330E-06
0.340	1.8218E-06
0.350	1.1573E-06
0.360	7.4875E-07
0.370	4.4408E-07
0.380	2.5214E-07
0.390	1.7228E-07
0.400	1.1671E-07
0.420	5.0514E-08
0.440	3.1655E-08
0.460	1.4672E-08
0.480	1.5310E-08
0.500	1.1955E-08
0.550	1.7542E-08
0.600	3.3540E-08
0.650	2.0732E-08
0.700	1.6736E-08
