Material: mixed gases / air / Pennington
Optical constants. D. M. Pennington, M. A. Henesian, R. W. Hellwarth. Nonlinear index of air at 1.053 μm. Phys. Rev. A 39, 3003-3009 (1989)
Comments: 1 ns at 1.053 μm. Elliptical polarization rotation.
Conditions: {"n2_method": "EPR", "pulse_duration": "1e-9"}
wavelength (um)	n	2
1.053	4.2e-23
