Material: main / CaF2 / Bosomworth-5K
Optical constants. D. R. Bosomworth. Far-infrared optical properties of CaF2, SrF2, BaF2, and CdF2. Phys. Rev., 157, 709 (1967)
Comments: 5 K
Conditions: {"temperature": 5}
wavelength (um)	k
45.045	6.55E-04
45.249	6.37E-04
45.455	6.19E-04
45.662	6.02E-04
45.872	5.86E-04
46.083	5.72E-04
46.296	5.58E-04
46.512	5.46E-04
46.729	5.35E-04
46.948	5.24E-04
47.170	5.13E-04
47.393	5.03E-04
47.619	4.93E-04
47.847	4.84E-04
48.077	4.76E-04
48.309	4.69E-04
48.544	4.62E-04
48.780	4.56E-04
49.020	4.50E-04
49.261	4.44E-04
49.505	4.39E-04
49.751	4.33E-04
50.000	4.28E-04
50.251	4.23E-04
50.505	4.18E-04
50.761	4.14E-04
51.020	4.09E-04
51.282	4.05E-04
51.546	4.02E-04
51.813	3.98E-04
52.083	3.95E-04
52.356	3.92E-04
52.632	3.89E-04
52.910	3.87E-04
53.191	3.85E-04
53.476	3.83E-04
53.763	3.82E-04
54.054	3.81E-04
54.348	3.80E-04
54.645	3.79E-04
54.945	3.77E-04
55.249	3.76E-04
55.556	3.75E-04
55.866	3.73E-04
56.180	3.72E-04
56.497	3.71E-04
56.818	3.69E-04
57.143	3.68E-04
57.471	3.67E-04
57.803	3.65E-04
58.140	3.64E-04
58.480	3.63E-04
58.824	3.62E-04
59.172	3.61E-04
59.524	3.60E-04
59.880	3.58E-04
60.241	3.57E-04
60.606	3.56E-04
60.976	3.55E-04
61.350	3.54E-04
61.728	3.53E-04
62.112	3.52E-04
62.500	3.51E-04
62.893	3.50E-04
63.291	3.49E-04
63.694	3.48E-04
64.103	3.47E-04
64.516	3.47E-04
64.935	3.46E-04
65.359	3.46E-04
65.789	3.47E-04
66.225	3.48E-04
66.667	3.49E-04
67.114	3.51E-04
67.568	3.53E-04
68.027	3.54E-04
68.493	3.56E-04
68.966	3.57E-04
69.444	3.57E-04
69.930	3.57E-04
70.423	3.58E-04
70.922	3.58E-04
71.429	3.58E-04
71.942	3.59E-04
72.464	3.59E-04
72.993	3.61E-04
73.529	3.62E-04
74.074	3.63E-04
74.627	3.64E-04
75.188	3.65E-04
75.758	3.66E-04
76.336	3.67E-04
76.923	3.68E-04
77.519	3.69E-04
78.125	3.71E-04
78.740	3.73E-04
79.365	3.77E-04
80.000	3.81E-04
80.645	3.86E-04
81.301	3.91E-04
81.967	3.96E-04
82.645	4.00E-04
83.333	4.03E-04
84.034	4.06E-04
84.746	4.08E-04
85.470	4.10E-04
86.207	4.10E-04
86.957	4.10E-04
87.719	4.12E-04
88.496	4.18E-04
89.286	4.27E-04
90.090	4.37E-04
90.909	4.46E-04
91.743	4.54E-04
92.593	4.59E-04
93.458	4.63E-04
94.340	4.66E-04
95.238	4.68E-04
96.154	4.70E-04
97.087	4.73E-04
98.039	4.77E-04
99.010	4.82E-04
100.00	4.87E-04
101.01	4.93E-04
102.04	4.99E-04
103.09	5.06E-04
104.17	5.14E-04
105.26	5.21E-04
106.38	5.28E-04
107.53	5.34E-04
108.70	5.39E-04
109.89	5.44E-04
111.11	5.48E-04
112.36	5.51E-04
113.64	5.55E-04
114.94	5.59E-04
116.28	5.63E-04
117.65	5.66E-04
119.05	5.70E-04
120.48	5.74E-04
121.95	5.78E-04
123.46	5.81E-04
125.00	5.84E-04
126.58	5.86E-04
128.21	5.89E-04
129.87	5.91E-04
131.58	5.94E-04
133.33	5.97E-04
135.14	6.00E-04
136.99	6.04E-04
138.89	6.09E-04
140.85	6.13E-04
142.86	6.18E-04
144.93	6.23E-04
147.06	6.27E-04
149.25	6.31E-04
151.52	6.35E-04
153.85	6.38E-04
156.25	6.40E-04
158.73	6.42E-04
161.29	6.44E-04
163.93	6.46E-04
166.67	6.46E-04
169.49	6.47E-04
172.41	6.46E-04
175.44	6.45E-04
178.57	6.43E-04
181.82	6.39E-04
185.19	6.33E-04
188.68	6.27E-04
192.31	6.21E-04
196.08	6.16E-04
200.00	6.12E-04
204.08	6.08E-04
208.33	6.05E-04
212.77	6.03E-04
217.39	6.01E-04
222.22	5.99E-04
227.27	5.98E-04
232.56	5.97E-04
238.10	5.96E-04
243.90	5.96E-04
250.00	5.95E-04
256.41	5.89E-04
263.16	5.83E-04
270.27	5.76E-04
277.78	5.69E-04
285.71	5.60E-04
294.12	5.49E-04
303.03	5.35E-04
312.50	5.17E-04
322.58	5.01E-04
333.33	4.90E-04
344.83	4.82E-04
357.14	4.75E-04
370.37	4.68E-04
384.62	4.62E-04
400.00	4.57E-04
416.67	4.53E-04
434.78	4.52E-04
454.55	4.51E-04
476.19	4.35E-04
500.00	4.28E-04
526.32	4.26E-04
555.56	4.23E-04
588.24	4.19E-04
625.00	4.14E-04
666.67	4.04E-04
714.29	3.88E-04
769.23	3.61E-04
833.33	3.21E-04
909.09	2.67E-04
1000.0	1.98E-04
