Material: main / Ar / Wahlstrand
Optical constants. J. K. Wahlstrand, Y.-H. Cheng, H. M. Milchberg. Absolute measurement of the transient optical nonlinearity in N2, O2, N2O, and Ar. Phys. Rev. A 85, 043820 (2012)
Comments: 40 fs. Single-shot supercontinuum spectral interferometry. Room temperature, atmospheric pressure.
Conditions: {"n2_method": "SI", "pulse_duration": "40e-15"}
wavelength (um)	n	2
0.80	9.7e-24
