Material: main / SrF2 / Bosomworth-5K
Optical constants. D. R. Bosomworth. Far-infrared optical properties of CaF2, SrF2, BaF2, and CdF2. Phys. Rev., 157, 709 (1967)
Comments: 5 K
Conditions: {"temperature": 5}
wavelength (um)	k
46.512	1.70E-02
46.729	1.45E-02
46.948	1.40E-02
47.170	1.45E-02
47.393	1.51E-02
47.619	1.53E-02
47.847	1.43E-02
48.077	1.33E-02
48.309	1.21E-02
48.544	1.08E-02
48.780	9.74E-03
49.020	5.91E-03
49.261	5.31E-03
49.505	4.73E-03
49.751	4.22E-03
50.000	3.76E-03
50.251	3.42E-03
50.505	3.08E-03
50.761	2.93E-03
51.020	2.70E-03
51.282	2.64E-03
51.546	2.62E-03
51.813	2.63E-03
52.083	2.70E-03
52.356	2.86E-03
52.632	2.92E-03
52.910	2.88E-03
53.191	2.67E-03
53.476	2.46E-03
53.763	2.21E-03
54.054	1.99E-03
54.348	1.74E-03
54.645	1.57E-03
54.945	1.42E-03
55.249	1.28E-03
55.556	1.17E-03
55.866	1.08E-03
56.180	9.93E-04
56.497	9.16E-04
56.818	8.53E-04
57.143	7.97E-04
57.471	7.53E-04
57.803	7.15E-04
58.140	6.78E-04
58.480	6.43E-04
58.824	6.08E-04
59.172	5.75E-04
59.524	5.47E-04
59.880	5.30E-04
60.241	5.13E-04
60.606	4.97E-04
60.976	4.83E-04
61.350	4.71E-04
61.728	4.60E-04
62.112	4.50E-04
62.500	4.41E-04
62.893	4.32E-04
63.291	4.24E-04
63.694	4.16E-04
64.103	4.10E-04
64.516	4.05E-04
64.935	4.03E-04
65.359	4.01E-04
65.789	4.00E-04
66.225	3.98E-04
66.667	3.97E-04
67.114	3.95E-04
67.568	3.93E-04
68.027	3.91E-04
68.493	3.89E-04
68.966	3.87E-04
69.444	3.85E-04
69.930	3.82E-04
70.423	3.80E-04
70.922	3.77E-04
71.429	3.75E-04
71.942	3.73E-04
72.464	3.70E-04
72.993	3.68E-04
73.529	3.66E-04
74.074	3.63E-04
74.627	3.61E-04
75.188	3.58E-04
75.758	3.56E-04
76.336	3.53E-04
76.923	3.50E-04
77.519	3.47E-04
78.125	3.44E-04
78.740	3.43E-04
79.365	3.42E-04
80.000	3.41E-04
80.645	3.39E-04
81.301	3.36E-04
81.967	3.33E-04
82.645	3.26E-04
83.333	3.09E-04
84.034	2.89E-04
84.746	2.75E-04
85.470	2.62E-04
86.207	2.51E-04
86.957	2.39E-04
87.719	2.28E-04
88.496	2.16E-04
89.286	2.05E-04
90.090	1.94E-04
90.909	1.84E-04
91.743	1.77E-04
92.593	1.79E-04
93.458	1.73E-04
94.340	1.66E-04
95.238	1.59E-04
96.154	1.52E-04
97.087	1.46E-04
98.039	1.41E-04
99.010	1.37E-04
100.00	1.35E-04
101.01	1.33E-04
102.04	1.30E-04
103.09	1.28E-04
104.17	1.28E-04
105.26	1.28E-04
106.38	1.30E-04
107.53	1.30E-04
108.70	1.30E-04
109.89	1.32E-04
111.11	1.34E-04
112.36	1.37E-04
113.64	1.41E-04
114.94	1.45E-04
116.28	1.49E-04
117.65	1.54E-04
119.05	1.60E-04
120.48	1.66E-04
121.95	1.74E-04
123.46	1.88E-04
125.00	2.00E-04
126.58	2.07E-04
128.21	2.09E-04
129.87	2.08E-04
131.58	2.06E-04
133.33	2.03E-04
135.14	2.00E-04
136.99	1.98E-04
138.89	1.96E-04
140.85	1.93E-04
142.86	1.92E-04
144.93	1.91E-04
147.06	1.91E-04
149.25	1.91E-04
151.52	1.92E-04
153.85	1.94E-04
156.25	1.95E-04
158.73	1.95E-04
161.29	1.95E-04
163.93	1.94E-04
166.67	1.94E-04
169.49	1.93E-04
172.41	1.93E-04
175.44	1.94E-04
178.57	2.03E-04
181.82	2.20E-04
185.19	2.25E-04
188.68	2.26E-04
192.31	2.25E-04
196.08	2.23E-04
200.00	2.20E-04
204.08	2.17E-04
208.33	2.13E-04
212.77	2.09E-04
217.39	2.04E-04
222.22	1.99E-04
227.27	1.96E-04
232.56	1.93E-04
238.10	1.91E-04
243.90	1.87E-04
250.00	1.84E-04
256.41	1.79E-04
263.16	1.75E-04
270.27	1.70E-04
277.78	1.65E-04
285.71	1.61E-04
294.12	1.56E-04
303.03	1.52E-04
312.50	1.48E-04
322.58	1.43E-04
333.33	1.39E-04
344.83	1.35E-04
357.14	1.30E-04
370.37	1.26E-04
384.62	1.21E-04
400.00	1.16E-04
416.67	1.10E-04
434.78	1.03E-04
454.55	9.66E-05
476.19	8.87E-05
500.00	7.96E-05
