Material: main / PtSe2 / Tharrault-6L
Optical constants. M. Tharrault, S. Ayari, M. Arfaoui, E. Desgué, R. Le Goff, P. Morfin, J. Palomo, M. Rosticher, S. Jaziri, B, Plaçais,P. Legagneux, F. Carosella, C. Voisin, R. Ferreira, E. Baudin. Optical absorption in indirect semiconductor to semimetal PtSe2 arises from direct transitions. Phys. Rev. Lett. 134, 066901 (2025) (Numerical data kindly provided by Marin Tharrault)
Comments: 6L CVT-grown exfoliated crystal. The optical indexes are computed from the 2D surface conductivity using σ2D·Z0 = −2πi·(t/λ)·(εr−1), where Z0 is the impedance of free space, i the imaginary unit, t the equivalent layered stack thickness and λ the free space wavelength. We use t = NL t0 with t0 = 5.1 Å the single layer thickness. The measurement method accuratly determines Im{εr} = 2nk, but only Re{εr} = n2 - k2 as long as the optical absorption is non-zero.
wavelength (um)	n	k
0.41536	4.13675	2.00197
0.41816	4.10782	2.05799
0.42100	4.11882	2.07866
0.42388	4.08733	2.14622
0.42680	4.06161	2.20938
0.42975	4.07290	2.22951
0.43275	4.06998	2.25526
0.43580	4.07854	2.28079
0.43888	4.09105	2.29187
0.44201	4.10159	2.30928
0.44519	4.12374	2.31225
0.44841	4.11162	2.35371
0.45167	4.13083	2.37064
0.45499	4.12681	2.40699
0.45835	4.12353	2.42903
0.46177	4.12242	2.46322
0.46523	4.14218	2.47279
0.46875	4.15368	2.48987
0.47232	4.16211	2.51350
0.47595	4.18012	2.52159
0.47963	4.18859	2.54221
0.48337	4.19702	2.55929
0.48717	4.20823	2.57102
0.49103	4.22079	2.57793
0.49495	4.22871	2.58603
0.49893	4.25714	2.58761
0.50298	4.27733	2.59384
0.50709	4.28000	2.61343
0.51128	4.29091	2.62178
0.51553	4.30281	2.63160
0.51985	4.31257	2.64546
0.52425	4.32018	2.65525
0.52872	4.32613	2.67103
0.53327	4.34051	2.67773
0.53789	4.34955	2.69117
0.54260	4.35489	2.70329
0.54739	4.37248	2.71099
0.55227	4.38869	2.71620
0.55723	4.39779	2.72506
0.56229	4.37126	2.76312
0.56743	4.36968	2.77996
0.57268	4.36483	2.80842
0.57801	4.35193	2.84612
0.58346	4.40146	2.81024
0.58900	4.40662	2.83258
0.59465	4.43353	2.81972
0.60041	4.44141	2.84725
0.60628	4.37022	2.95909
0.61227	4.41025	2.95866
0.61838	4.41521	3.00522
0.62461	4.44552	3.01553
0.63096	4.49176	3.03276
0.63745	4.51682	3.05723
0.64407	4.56701	3.05651
0.65084	4.63348	3.03699
0.65774	4.65751	3.06623
0.66479	4.62953	3.14398
0.67200	4.65728	3.17376
0.67937	4.73261	3.12611
0.68689	4.69462	3.18861
0.69459	4.75952	3.15153
0.70246	4.78148	3.14968
0.71051	4.82501	3.13904
0.71875	4.75858	3.25708
0.72718	4.84130	3.22648
0.73581	4.89566	3.25705
0.74465	4.97799	3.25606
0.75370	5.01073	3.32183
0.76298	5.08519	3.34782
0.77249	5.17943	3.35695
0.78223	5.27711	3.36221
0.79223	5.38615	3.31827
0.80249	5.45833	3.32557
0.81301	5.56685	3.27350
0.82382	5.66149	3.19268
0.83491	5.77091	3.09683
0.84631	5.84609	3.00650
0.85802	5.95858	2.85538
0.87006	5.99872	2.76858
0.88245	6.06849	2.62520
0.89519	6.09970	2.53003
0.90831	6.12961	2.42201
0.92182	6.17039	2.30036
0.93573	6.19586	2.19862
0.95007	6.24749	2.06636
0.96486	6.24064	1.96050
0.98011	6.28388	1.80094
0.99586	6.29899	1.66678
1.01212	6.31730	1.53242
1.02891	6.31716	1.44819
1.08283	6.21505	1.14813
1.10208	6.22040	1.06203
1.12203	6.17973	0.99676
1.14271	6.14782	0.93001
1.16417	6.12103	0.85567
1.18645	6.10150	0.79696
1.20960	6.05285	0.75824
1.23367	6.00164	0.73609
1.25860	5.95881	0.70967
1.28468	5.86865	0.71786
1.31186	5.80665	0.70151
1.34022	5.76935	0.68084
1.36984	5.75653	0.66154
1.40079	5.71361	0.62712
1.43318	5.65247	0.63095
1.46709	5.60928	0.62664
1.50266	5.58083	0.59987
1.53999	5.58241	0.56287
