Material: main / PtSe2 / Tharrault-4L
Optical constants. M. Tharrault, S. Ayari, M. Arfaoui, E. Desgué, R. Le Goff, P. Morfin, J. Palomo, M. Rosticher, S. Jaziri, B, Plaçais,P. Legagneux, F. Carosella, C. Voisin, R. Ferreira, E. Baudin. Optical absorption in indirect semiconductor to semimetal PtSe2 arises from direct transitions. Phys. Rev. Lett. 134, 066901 (2025) (Numerical data kindly provided by Marin Tharrault)
Comments: 4L CVT-grown exfoliated crystal. The optical indexes are computed from the 2D surface conductivity using σ2D·Z0 = −2πi·(t/λ)·(εr−1), where Z0 is the impedance of free space, i the imaginary unit, t the equivalent layered stack thickness and λ the free space wavelength. We use t = NL t0 with t0 = 5.1 Å the single layer thickness. The measurement method accuratly determines Im{εr} = 2nk, but only Re{εr} = n2 - k2 as long as the optical absorption is non-zero.
wavelength (um)	n	k
0.41605	4.13224	2.30274
0.41887	4.11479	2.34044
0.42171	4.11486	2.36312
0.42460	4.10303	2.39868
0.42753	4.09722	2.43370
0.43050	4.10786	2.45121
0.43351	4.13393	2.44706
0.43656	4.13253	2.47377
0.43966	4.10983	2.51551
0.44280	4.11969	2.53916
0.44599	4.11077	2.57525
0.44922	4.11078	2.59945
0.45250	4.11677	2.61160
0.45582	4.11999	2.62616
0.45920	4.12674	2.62045
0.46263	4.12757	2.63817
0.46611	4.12766	2.65486
0.46964	4.12286	2.67854
0.47322	4.12082	2.69987
0.47686	4.13487	2.71229
0.48056	4.15559	2.71202
0.48431	4.15827	2.73099
0.48813	4.16496	2.74990
0.49200	4.18137	2.76131
0.49594	4.19293	2.77988
0.49994	4.23314	2.77245
0.50400	4.23434	2.80302
0.50813	4.23732	2.83150
0.51233	4.26716	2.83353
0.51660	4.26776	2.86335
0.52094	4.31154	2.85243
0.52536	4.32299	2.87136
0.52985	4.35766	2.86859
0.53441	4.38187	2.87543
0.53906	4.38241	2.90632
0.54379	4.38422	2.93350
0.54860	4.42018	2.92909
0.55350	4.43664	2.93795
0.55849	4.44608	2.95519
0.56356	4.46357	2.95412
0.56873	4.48374	2.95296
0.57400	4.52198	2.93035
0.57937	4.52524	2.94261
0.58483	4.52618	2.96220
0.59040	4.52737	2.97233
0.59608	4.53535	2.98435
0.60187	4.55699	3.04332
0.60777	4.58634	3.05556
0.61378	4.62068	3.05303
0.61992	4.62181	3.10270
0.62618	4.64613	3.13077
0.63257	4.66326	3.16750
0.63909	4.68953	3.19180
0.64575	4.73108	3.21164
0.65255	4.71842	3.28490
0.65949	4.79701	3.24990
0.66658	4.76777	3.31754
0.67383	4.83799	3.28808
0.68123	4.82243	3.35973
0.68880	4.85207	3.38407
0.69654	4.94025	3.36541
0.70446	5.00903	3.37063
0.71255	5.10586	3.36050
0.72084	5.19663	3.36022
0.72932	5.28410	3.36070
0.73800	5.39777	3.31363
0.74689	5.48596	3.29168
0.75600	5.55355	3.28596
0.76533	5.63233	3.24395
0.77490	5.75712	3.13612
0.78471	5.84876	3.05750
0.79477	5.89209	3.02342
0.80509	5.95386	2.93438
0.81569	6.00555	2.85256
0.82656	6.08619	2.72939
0.83773	6.10682	2.65686
0.84921	6.16473	2.54437
0.86100	6.18665	2.45439
0.87313	6.20913	2.37133
0.88560	6.22821	2.27193
0.89844	6.26445	2.14495
0.91165	6.28896	2.04926
0.92526	6.32223	1.93132
0.93927	6.32707	1.82067
0.95372	6.43390	1.64741
0.96863	6.42249	1.52728
0.98400	6.41777	1.40852
0.99987	6.37361	1.32121
1.01626	6.38547	1.21373
1.03320	6.36254	1.16429
1.06883	6.19337	0.95728
1.08758	6.27491	0.94993
1.10700	6.23144	0.91958
1.12713	6.18576	0.88991
1.14800	6.17218	0.83655
1.16966	6.18761	0.78311
1.19216	6.18046	0.76222
1.21553	6.14153	0.74689
1.24021	6.13075	0.71542
1.26553	6.10641	0.68087
1.29191	6.04791	0.66020
1.31940	6.00876	0.63110
1.34809	6.00136	0.60251
1.37806	6.02410	0.56236
1.40939	5.97150	0.51300
1.44218	6.05053	0.40492
1.47653	6.09349	0.34123
1.51256	6.12110	0.28426
1.55038	6.26536	0.22095
