Material: main / PtSe2 / Tharrault-1L
Optical constants. M. Tharrault, S. Ayari, M. Arfaoui, E. Desgué, R. Le Goff, P. Morfin, J. Palomo, M. Rosticher, S. Jaziri, B, Plaçais,P. Legagneux, F. Carosella, C. Voisin, R. Ferreira, E. Baudin. Optical absorption in indirect semiconductor to semimetal PtSe2 arises from direct transitions. Phys. Rev. Lett. 134, 066901 (2025) (Numerical data kindly provided by Marin Tharrault)
Comments: 1L CVT-grown exfoliated crystal. The optical indexes are computed from the 2D surface conductivity using σ2D·Z0 = −2πi·(t/λ)·(εr−1), where Z0 is the impedance of free space, i the imaginary unit, t the equivalent layered stack thickness and λ the free space wavelength. We use t = NL t0 with t0 = 5.1 Å the single layer thickness. The measurement method accuratly determines Im{εr} = 2nk, but only Re{εr} = n2 - k2 as long as the optical absorption is non-zero.
wavelength (um)	n	k
0.41605	6.83934	1.27762
0.41887	6.81986	1.29184
0.42171	6.79046	1.33146
0.42460	6.74693	1.38556
0.42753	6.68915	1.46401
0.43050	6.70452	1.48582
0.43351	6.77110	1.46152
0.43656	6.73889	1.50715
0.43966	6.71938	1.54777
0.44280	6.75774	1.56020
0.44599	6.79381	1.57026
0.44922	6.81591	1.59399
0.45250	6.83636	1.61838
0.45582	6.87488	1.62632
0.45920	6.89874	1.64101
0.46263	6.90922	1.66850
0.46611	6.93884	1.67911
0.46964	6.96511	1.68335
0.47322	7.00643	1.67882
0.47686	7.03260	1.68438
0.48056	7.06206	1.69354
0.48431	7.09044	1.69248
0.48813	7.11477	1.69997
0.49200	7.13021	1.71406
0.49594	7.12634	1.74609
0.49994	7.12874	1.77271
0.50400	7.15432	1.79942
0.50813	7.18444	1.82973
0.51233	7.20401	1.88201
0.51660	7.23551	1.92731
0.52094	7.28491	1.96269
0.52536	7.32655	2.01282
0.52985	7.38013	2.06346
0.53441	7.41259	2.12838
0.53906	7.43869	2.19250
0.54379	7.48751	2.24717
0.54860	7.53138	2.30955
0.55350	7.60363	2.33642
0.55849	7.63474	2.38667
0.56356	7.69708	2.40372
0.56873	7.74649	2.42519
0.57400	7.82064	2.41757
0.57937	7.89958	2.38946
0.58483	7.93571	2.39527
0.59040	8.04144	2.33130
0.59608	8.13924	2.27858
0.60187	7.77726	2.25443
0.60777	7.89043	2.16576
0.61378	7.87121	2.16091
0.61992	7.95944	2.03680
0.62618	8.02137	1.92090
0.63257	8.09906	1.77442
0.63909	8.10485	1.66963
0.64575	8.19898	1.47840
0.65255	8.19852	1.35246
0.65949	8.06343	1.27362
0.66658	7.78243	1.19493
0.67383	7.82113	1.03082
0.68123	7.82038	0.89694
0.68880	7.77998	0.79489
0.69654	7.78598	0.67380
0.70446	7.76771	0.59504
0.71255	7.74186	0.52447
0.72084	7.71030	0.45484
0.72932	7.61078	0.42554
0.73800	7.46558	0.44099
0.74689	7.45753	0.37287
0.75600	7.40147	0.32194
0.76533	7.28548	0.31799
0.77490	7.22732	0.28574
0.78471	7.12559	0.28146
0.79477	7.00201	0.27629
0.80509	6.79792	0.27996
0.81569	6.68826	0.25804
0.82656	6.66258	0.20848
0.83773	6.58331	0.16639
0.84921	6.47195	0.18406
0.86100	6.57131	0.18993
0.87313	6.53715	0.17110
0.88560	6.54990	0.11772
0.89844	5.45829	0.18954
0.91165	5.41622	0.19120
0.92526	5.51727	0.15831
0.93927	5.43970	0.13471
