Material: main / PtSe2 / Tharrault-12L
Optical constants. M. Tharrault, S. Ayari, M. Arfaoui, E. Desgué, R. Le Goff, P. Morfin, J. Palomo, M. Rosticher, S. Jaziri, B, Plaçais,P. Legagneux, F. Carosella, C. Voisin, R. Ferreira, E. Baudin. Optical absorption in indirect semiconductor to semimetal PtSe2 arises from direct transitions. Phys. Rev. Lett. 134, 066901 (2025) (Numerical data kindly provided by Marin Tharrault)
Comments: 12L CVT-grown exfoliated crystal. The optical indexes are computed from the 2D surface conductivity using σ2D·Z0 = −2πi·(t/λ)·(εr−1), where Z0 is the impedance of free space, i the imaginary unit, t the equivalent layered stack thickness and λ the free space wavelength. We use t = NL t0 with t0 = 5.1 Å the single layer thickness. The measurement method accuratly determines Im{εr} = 2nk, but only Re{εr} = n2 - k2 as long as the optical absorption is non-zero.
wavelength (um)	n	k
0.41578	4.05741	2.22784
0.41858	4.03138	2.27357
0.42143	4.02705	2.30782
0.42431	4.00080	2.35403
0.42724	3.99030	2.38763
0.43020	3.98752	2.41850
0.43321	4.01618	2.42223
0.43626	4.01419	2.45320
0.43935	4.00354	2.49142
0.44248	4.01506	2.51491
0.44567	4.01691	2.54624
0.44889	4.02101	2.57658
0.45217	4.02875	2.60353
0.45549	4.03802	2.62691
0.45886	4.02704	2.67134
0.46228	4.03298	2.70072
0.46576	4.04224	2.72526
0.46928	4.05196	2.74532
0.47286	4.06475	2.76210
0.47650	4.08485	2.76811
0.48019	4.09132	2.78972
0.48394	4.09516	2.80887
0.48774	4.11436	2.81159
0.49161	4.12336	2.81995
0.49554	4.12471	2.83687
0.49953	4.13182	2.84381
0.50359	4.13420	2.85417
0.50772	4.13394	2.86495
0.51191	4.15561	2.85113
0.51617	4.15440	2.86278
0.52050	4.15627	2.87412
0.52491	4.16253	2.87769
0.52939	4.16688	2.88438
0.53395	4.17568	2.88812
0.53859	4.18507	2.89162
0.54331	4.18855	2.90105
0.54812	4.20484	2.90010
0.55301	4.21456	2.90386
0.55798	4.22303	2.91039
0.56305	4.22658	2.92049
0.56821	4.23387	2.92823
0.57347	4.23901	2.94118
0.57882	4.25813	2.94117
0.58428	4.26634	2.95071
0.58984	4.25372	2.98402
0.59551	4.26441	2.99969
0.60128	4.27444	3.01984
0.60717	4.27945	3.04954
0.61318	4.28772	3.06632
0.61930	4.28545	3.10987
0.62555	4.29677	3.13866
0.63193	4.30824	3.17365
0.63844	4.32055	3.21449
0.64508	4.35154	3.23252
0.65186	4.34862	3.30184
0.65879	4.39223	3.30770
0.66587	4.41829	3.34507
0.67310	4.42525	3.40376
0.68048	4.48321	3.40453
0.68804	4.53748	3.40706
0.69576	4.57506	3.43281
0.70366	4.64435	3.41013
0.71173	4.67856	3.42406
0.72000	4.73447	3.42292
0.72846	4.80099	3.39938
0.73712	4.84194	3.42061
0.74599	4.91447	3.42450
0.75508	4.93212	3.50755
0.76439	5.02415	3.49170
0.77393	5.10350	3.53356
0.78372	5.21699	3.53165
0.79375	5.28057	3.60416
0.80405	5.40811	3.59381
0.81461	5.50382	3.63352
0.82546	5.66155	3.58691
0.83660	5.75527	3.60070
0.84805	5.90118	3.51859
0.85981	6.05910	3.39877
0.87190	6.16146	3.31755
0.88434	6.27931	3.18819
0.89714	6.37027	3.07095
0.91031	6.37147	3.01142
0.92388	6.40717	2.89678
0.93785	6.45087	2.79024
0.95226	6.48797	2.68522
0.96712	6.52101	2.57444
0.98244	6.55496	2.43410
0.99826	6.57135	2.32886
1.01460	6.60928	2.15777
1.03148	6.62632	2.07266
1.08568	6.57680	1.64140
1.10503	6.55608	1.52099
1.12508	6.51320	1.42156
1.14588	6.47664	1.30555
1.16746	6.42625	1.20899
1.18987	6.38126	1.14390
1.21315	6.33587	1.06734
1.23737	6.28800	1.01172
1.26283	6.24868	0.94864
1.28909	6.19534	0.89256
1.31646	6.15052	0.85136
1.34502	6.11439	0.80261
1.37485	6.07923	0.77075
1.40604	6.03141	0.72143
1.43867	5.99684	0.66538
1.47285	5.96165	0.63477
1.50869	5.91725	0.60437
1.54632	5.89713	0.55508
