Material: main / C / Ermolaev-SWCNT-e
Optical constants. G. A. Ermolaev, Y. Xie, L. Qian, M. K. Tatmyshevskiy, A. S. Slavich, A. V. Arsenin, J. Zhang, V. S. Volkov, A. I. Chernov. Anisotropic optical properties of monolayer aligned single-walled carbon nanotubes. Phys. Status Solidi RRL, 2300199 (2023) (Numerical data kindly provided by Georgy Ermolaev)
Comments: Monolayer of aligned single-walled carbon nanotubes (SWCNTs). Extraordinary ray (e).
Conditions: {"substrate": "SiO2", "film_thickness": "1L"}
wavelength (um)	n	k
0.250	1.48487	0.46233
0.254	1.51104	0.44464
0.258	1.53265	0.42514
0.262	1.54993	0.40488
0.266	1.56334	0.38467
0.270	1.57341	0.36508
0.274	1.58067	0.34651
0.278	1.58563	0.32916
0.282	1.58875	0.31315
0.286	1.59041	0.29847
0.290	1.59093	0.28511
0.294	1.59058	0.27298
0.298	1.58957	0.26202
0.302	1.58806	0.25212
0.306	1.58619	0.24318
0.310	1.58406	0.23513
0.314	1.58176	0.22788
0.318	1.57935	0.22134
0.322	1.57687	0.21545
0.326	1.57436	0.21013
0.330	1.57185	0.20535
0.334	1.56937	0.20103
0.338	1.56693	0.19714
0.342	1.56454	0.19363
0.346	1.56220	0.19047
0.350	1.55994	0.18762
0.354	1.55774	0.18505
0.358	1.55561	0.18275
0.362	1.55356	0.18068
0.366	1.55158	0.17882
0.370	1.54967	0.17716
0.374	1.54783	0.17568
0.378	1.54606	0.17436
0.382	1.54437	0.17319
0.386	1.54273	0.17216
0.390	1.54117	0.17126
0.394	1.53966	0.17047
0.398	1.53822	0.16980
0.402	1.53683	0.16922
0.406	1.53550	0.16873
0.410	1.53423	0.16833
0.414	1.53300	0.16801
0.418	1.53183	0.16776
0.422	1.53070	0.16759
0.426	1.52962	0.16747
0.430	1.52859	0.16742
0.434	1.52760	0.16742
0.438	1.52665	0.16747
0.442	1.52574	0.16758
0.446	1.52486	0.16772
0.450	1.52403	0.16791
0.454	1.52322	0.16815
0.458	1.52246	0.16842
0.462	1.52172	0.16872
0.466	1.52102	0.16906
0.470	1.52034	0.16943
0.474	1.51970	0.16983
0.478	1.51908	0.17025
0.482	1.51849	0.17071
0.486	1.51792	0.17119
0.490	1.51738	0.17169
0.494	1.51687	0.17221
0.498	1.51637	0.17276
0.502	1.51590	0.17332
0.506	1.51546	0.17391
0.510	1.51503	0.17451
0.514	1.51462	0.17513
0.518	1.51423	0.17577
0.522	1.51387	0.17642
0.526	1.51352	0.17709
0.530	1.51318	0.17777
0.534	1.51287	0.17846
0.538	1.51257	0.17917
0.542	1.51229	0.17988
0.546	1.51202	0.18061
0.550	1.51177	0.18136
0.554	1.51153	0.18211
0.558	1.51131	0.18287
0.562	1.51110	0.18364
0.566	1.51090	0.18442
0.570	1.51072	0.18521
0.574	1.51055	0.18600
0.578	1.51039	0.18681
0.582	1.51025	0.18762
0.586	1.51011	0.18844
0.590	1.50999	0.18927
0.594	1.50988	0.19010
0.598	1.50978	0.19094
0.602	1.50969	0.19178
0.606	1.50961	0.19263
0.610	1.50954	0.19349
0.614	1.50948	0.19435
0.618	1.50943	0.19522
0.622	1.50938	0.19609
0.626	1.50935	0.19697
0.630	1.50933	0.19785
0.634	1.50931	0.19873
0.638	1.50931	0.19962
0.642	1.50931	0.20052
0.646	1.50932	0.20141
0.650	1.50933	0.20231
0.654	1.50936	0.20322
0.658	1.50939	0.20413
0.662	1.50943	0.20504
0.666	1.50948	0.20595
0.670	1.50953	0.20687
0.674	1.50959	0.20779
0.678	1.50966	0.20871
0.682	1.50973	0.20963
0.686	1.50981	0.21056
0.690	1.50990	0.21149
0.694	1.50999	0.21242
0.698	1.51009	0.21335
0.702	1.51020	0.21429
0.706	1.51031	0.21522
0.710	1.51042	0.21616
0.714	1.51055	0.21710
0.718	1.51067	0.21805
0.722	1.51081	0.21899
0.726	1.51095	0.21994
0.730	1.51109	0.22088
0.734	1.51124	0.22183
0.738	1.51139	0.22278
0.742	1.51155	0.22373
0.746	1.51171	0.22469
0.750	1.51188	0.22564
0.754	1.51206	0.22659
0.758	1.51223	0.22755
0.762	1.51242	0.22851
0.766	1.51260	0.22946
0.770	1.51279	0.23042
0.774	1.51299	0.23138
0.778	1.51319	0.23234
0.782	1.51339	0.23330
0.786	1.51360	0.23426
0.790	1.51382	0.23522
0.794	1.51403	0.23618
0.798	1.51425	0.23715
0.802	1.51448	0.23811
0.806	1.51471	0.23907
0.810	1.51494	0.24004
0.814	1.51517	0.24100
0.818	1.51541	0.24197
0.822	1.51566	0.24293
0.826	1.51590	0.24390
0.830	1.51615	0.24486
0.834	1.51641	0.24583
0.838	1.51667	0.24679
0.842	1.51693	0.24776
0.846	1.51719	0.24873
0.850	1.51746	0.24969
0.854	1.51773	0.25066
0.858	1.51800	0.25162
0.862	1.51828	0.25259
0.866	1.51856	0.25356
0.870	1.51884	0.25452
0.874	1.51913	0.25549
0.878	1.51942	0.25645
0.882	1.51971	0.25742
0.886	1.52001	0.25838
0.890	1.52031	0.25935
0.894	1.52061	0.26031
0.898	1.52091	0.26128
0.902	1.52122	0.26224
0.906	1.52153	0.26321
0.910	1.52184	0.26417
0.914	1.52216	0.26513
0.918	1.52248	0.26610
0.922	1.52280	0.26706
0.926	1.52312	0.26802
0.930	1.52345	0.26899
0.934	1.52378	0.26995
0.938	1.52411	0.27091
0.942	1.52444	0.27187
0.946	1.52478	0.27283
0.950	1.52512	0.27379
0.954	1.52546	0.27475
0.958	1.52580	0.27571
0.962	1.52615	0.27667
0.966	1.52650	0.27763
0.970	1.52685	0.27858
0.974	1.52720	0.27954
0.978	1.52756	0.28050
0.982	1.52792	0.28145
0.986	1.52828	0.28241
0.990	1.52864	0.28336
0.994	1.52901	0.28432
0.998	1.52937	0.28527
1.002	1.52974	0.28622
1.006	1.53011	0.28717
1.010	1.53049	0.28813
1.014	1.53086	0.28908
1.018	1.53124	0.29003
1.022	1.53162	0.29098
1.026	1.53200	0.29192
1.030	1.53239	0.29287
1.034	1.53278	0.29382
1.038	1.53316	0.29477
1.042	1.53355	0.29571
1.046	1.53395	0.29666
1.050	1.53434	0.29760
1.054	1.53474	0.29855
1.058	1.53514	0.29949
1.062	1.53554	0.30043
1.066	1.53594	0.30137
1.070	1.53634	0.30231
1.074	1.53675	0.30325
1.078	1.53716	0.30419
1.082	1.53757	0.30513
1.086	1.53798	0.30606
1.090	1.53839	0.30700
1.094	1.53881	0.30794
1.098	1.53923	0.30887
1.102	1.53965	0.30980
1.106	1.54007	0.31074
1.110	1.54049	0.31167
1.114	1.54091	0.31260
1.118	1.54134	0.31353
1.122	1.54177	0.31446
1.126	1.54220	0.31539
1.130	1.54263	0.31631
1.134	1.54306	0.31724
1.138	1.54350	0.31817
1.142	1.54393	0.31909
1.146	1.54437	0.32001
1.150	1.54481	0.32094
1.154	1.54525	0.32186
1.158	1.54569	0.32278
1.162	1.54614	0.32370
1.166	1.54659	0.32462
1.170	1.54703	0.32554
1.174	1.54748	0.32645
1.178	1.54793	0.32737
1.182	1.54839	0.32829
1.186	1.54884	0.32920
1.190	1.54930	0.33011
1.194	1.54975	0.33102
1.198	1.55021	0.33194
1.202	1.55067	0.33285
1.206	1.55113	0.33375
1.210	1.55159	0.33466
1.214	1.55206	0.33557
1.218	1.55253	0.33648
1.222	1.55299	0.33738
1.226	1.55346	0.33828
1.230	1.55393	0.33919
1.234	1.55440	0.34009
1.238	1.55488	0.34099
1.242	1.55535	0.34189
1.246	1.55583	0.34279
1.250	1.55630	0.34369
1.254	1.55678	0.34458
1.258	1.55726	0.34548
1.262	1.55774	0.34637
1.266	1.55823	0.34727
1.270	1.55871	0.34816
1.274	1.55920	0.34905
1.278	1.55968	0.34994
1.282	1.56017	0.35083
1.286	1.56066	0.35172
1.290	1.56115	0.35260
1.294	1.56164	0.35349
1.298	1.56214	0.35437
1.302	1.56263	0.35526
1.306	1.56313	0.35614
1.310	1.56362	0.35702
1.314	1.56412	0.35790
1.318	1.56462	0.35878
1.322	1.56512	0.35966
1.326	1.56562	0.36054
1.330	1.56613	0.36141
1.334	1.56663	0.36229
1.338	1.56714	0.36316
1.342	1.56764	0.36403
1.346	1.56815	0.36490
1.350	1.56866	0.36578
1.354	1.56917	0.36664
1.358	1.56968	0.36751
1.362	1.57019	0.36838
1.366	1.57071	0.36925
1.370	1.57122	0.37011
1.374	1.57174	0.37097
1.378	1.57226	0.37184
1.382	1.57277	0.37270
1.386	1.57329	0.37356
1.390	1.57381	0.37442
1.394	1.57434	0.37527
1.398	1.57486	0.37613
1.402	1.57538	0.37699
1.406	1.57591	0.37784
1.410	1.57643	0.37869
1.414	1.57696	0.37955
1.418	1.57749	0.38040
1.422	1.57802	0.38125
1.426	1.57855	0.38209
1.430	1.57908	0.38294
1.434	1.57961	0.38379
1.438	1.58014	0.38463
1.442	1.58068	0.38548
1.446	1.58121	0.38632
1.450	1.58175	0.38716
1.454	1.58229	0.38800
1.458	1.58283	0.38884
1.462	1.58337	0.38968
1.466	1.58391	0.39052
1.470	1.58445	0.39135
1.474	1.58499	0.39219
1.478	1.58553	0.39302
1.482	1.58608	0.39385
1.486	1.58662	0.39468
1.490	1.58717	0.39551
1.494	1.58772	0.39634
1.498	1.58826	0.39717
1.502	1.58881	0.39799
1.506	1.58936	0.39882
1.510	1.58991	0.39964
1.514	1.59047	0.40047
1.518	1.59102	0.40129
1.522	1.59157	0.40211
1.526	1.59213	0.40293
1.530	1.59268	0.40374
1.534	1.59324	0.40456
1.538	1.59380	0.40538
1.542	1.59436	0.40619
1.546	1.59491	0.40700
1.550	1.59547	0.40782
1.554	1.59603	0.40863
1.558	1.59660	0.40944
1.562	1.59716	0.41024
1.566	1.59772	0.41105
1.570	1.59829	0.41186
1.574	1.59885	0.41266
1.578	1.59942	0.41347
1.582	1.59998	0.41427
1.586	1.60055	0.41507
1.590	1.60112	0.41587
1.594	1.60169	0.41667
1.598	1.60226	0.41747
1.602	1.60283	0.41826
1.606	1.60340	0.41906
1.610	1.60397	0.41985
1.614	1.60455	0.42064
1.618	1.60512	0.42144
1.622	1.60570	0.42223
1.626	1.60627	0.42301
1.630	1.60685	0.42380
1.634	1.60743	0.42459
1.638	1.60800	0.42537
1.642	1.60858	0.42616
1.646	1.60916	0.42694
1.650	1.60974	0.42772
1.654	1.61032	0.42850
1.658	1.61090	0.42928
1.662	1.61149	0.43006
1.666	1.61207	0.43084
1.670	1.61265	0.43161
1.674	1.61324	0.43239
1.678	1.61382	0.43316
1.682	1.61441	0.43393
1.686	1.61500	0.43471
1.690	1.61558	0.43548
1.694	1.61617	0.43624
1.698	1.61676	0.43701
