Material: organic / (C5H8O2)n - poly(methyl methacrylate) / Tsuda-LD
Optical constants. S. Tsuda, S. Yamaguchi, Y. Kanamori, H. Yugami. Spectral and angular shaping of infrared radiation in a polymer resonator with molecular vibrational modes. Opt. Express 26, 6899-6915 (2018) [Calculation script (Python)]
Comments: MicroChem PMMA resist with a molecular weight of 950,000; Baked at 100 Â°C for 10 min on a hot plate; Lorentz-Drude model parameters provided in Table 1 of manuscript.
wavelength (um)	n	k
2.500	1.46559	4.461e-05
2.540	1.46537	4.919e-05
2.580	1.46514	5.449e-05
2.620	1.46489	6.072e-05
2.660	1.46463	6.820e-05
2.700	1.46434	7.749e-05
2.740	1.46403	8.965e-05
2.780	1.46368	1.073e-04
2.820	1.46328	1.392e-04
2.860	1.46274	2.378e-04
2.900	1.46216	1.303e-03
2.940	1.46280	3.952e-04
2.980	1.46204	2.520e-04
3.020	1.46135	2.652e-04
3.060	1.46061	3.172e-04
3.100	1.45972	4.053e-04
3.140	1.45861	5.495e-04
3.180	1.45713	8.024e-04
3.220	1.45495	1.309e-03
3.260	1.45132	2.599e-03
3.300	1.44408	8.032e-03
3.340	1.45610	2.944e-02
3.380	1.44891	3.105e-02
3.420	1.47826	1.904e-02
3.460	1.47840	8.541e-03
3.500	1.47281	4.195e-03
3.540	1.47289	2.598e-03
3.580	1.46985	1.267e-03
3.620	1.46811	8.650e-04
3.660	1.46685	6.531e-04
3.700	1.46584	5.246e-04
3.740	1.46499	4.407e-04
3.780	1.46424	3.834e-04
3.820	1.46357	3.429e-04
3.860	1.46294	3.138e-04
3.900	1.46235	2.927e-04
3.940	1.46178	2.774e-04
3.980	1.46122	2.666e-04
4.020	1.46068	2.592e-04
4.060	1.46014	2.545e-04
4.100	1.45960	2.522e-04
4.140	1.45905	2.517e-04
4.180	1.45851	2.530e-04
4.220	1.45795	2.557e-04
4.260	1.45738	2.598e-04
4.300	1.45680	2.652e-04
4.340	1.45621	2.718e-04
4.380	1.45559	2.796e-04
4.420	1.45496	2.887e-04
4.460	1.45430	2.990e-04
4.500	1.45362	3.106e-04
4.540	1.45291	3.235e-04
4.580	1.45217	3.379e-04
4.620	1.45140	3.539e-04
4.660	1.45059	3.717e-04
4.700	1.44974	3.913e-04
4.740	1.44884	4.131e-04
4.780	1.44789	4.373e-04
4.820	1.44688	4.643e-04
4.860	1.44580	4.944e-04
4.900	1.44465	5.282e-04
4.940	1.44342	5.664e-04
4.980	1.44209	6.097e-04
5.020	1.44066	6.591e-04
5.060	1.43909	7.161e-04
5.100	1.43738	7.822e-04
5.140	1.43549	8.597e-04
5.180	1.43340	9.518e-04
5.220	1.43105	1.063e-03
5.260	1.42840	1.198e-03
5.300	1.42536	1.366e-03
5.340	1.42184	1.580e-03
5.380	1.41770	1.859e-03
5.420	1.41272	2.233e-03
5.460	1.40661	2.754e-03
5.500	1.39886	3.513e-03
5.540	1.38868	4.687e-03
5.580	1.37458	6.649e-03
5.620	1.35364	1.031e-02
5.660	1.31901	1.842e-02
5.700	1.25086	4.254e-02
5.740	1.07426	1.792e-01
5.780	1.69109	8.495e-01
5.820	1.75573	1.101e-01
5.860	1.62474	3.431e-02
5.900	1.56977	1.690e-02
5.940	1.53991	1.038e-02
5.980	1.52100	7.274e-03
6.020	1.50777	5.586e-03
6.060	1.49783	4.591e-03
6.100	1.48994	3.981e-03
6.140	1.48341	3.606e-03
6.180	1.47778	3.389e-03
6.220	1.47278	3.287e-03
6.260	1.46819	3.278e-03
6.300	1.46386	3.354e-03
6.340	1.45966	3.515e-03
6.380	1.45548	3.772e-03
6.420	1.45119	4.150e-03
6.460	1.44666	4.692e-03
6.500	1.44171	5.478e-03
6.540	1.43611	6.659e-03
6.580	1.42947	8.552e-03
6.620	1.42117	1.191e-02
6.660	1.41036	1.883e-02
6.700	1.39812	3.625e-02
6.740	1.40962	7.016e-02
6.780	1.43696	5.870e-02
6.820	1.42393	5.309e-02
6.860	1.41778	7.752e-02
6.900	1.44945	9.650e-02
6.940	1.46352	8.447e-02
6.980	1.50891	8.469e-02
7.020	1.49977	3.459e-02
7.060	1.48044	2.232e-02
7.100	1.46585	1.939e-02
7.140	1.45296	2.224e-02
7.180	1.44506	3.590e-02
7.220	1.46290	4.284e-02
7.260	1.46331	2.771e-02
7.300	1.45597	2.372e-02
7.340	1.45165	2.313e-02
7.380	1.44860	2.140e-02
7.420	1.44421	1.879e-02
7.460	1.43824	1.681e-02
7.500	1.43132	1.594e-02
7.540	1.42376	1.609e-02
7.580	1.41552	1.721e-02
7.620	1.40639	1.941e-02
7.660	1.39603	2.309e-02
7.700	1.38406	2.910e-02
7.740	1.37025	3.928e-02
7.780	1.35575	5.735e-02
7.820	1.34797	8.871e-02
7.860	1.36708	1.251e-01
7.900	1.40317	1.267e-01
7.940	1.40734	1.091e-01
7.980	1.39149	1.142e-01
8.020	1.39223	1.494e-01
8.060	1.44259	1.692e-01
8.100	1.47717	1.290e-01
8.140	1.46535	9.217e-02
8.180	1.43966	7.710e-02
8.220	1.41164	7.712e-02
8.260	1.38287	9.019e-02
8.300	1.35575	1.206e-01
8.340	1.34410	1.764e-01
8.380	1.38431	2.414e-01
8.420	1.46148	2.416e-01
8.460	1.48491	1.950e-01
8.500	1.46462	1.717e-01
8.540	1.43613	1.813e-01
8.580	1.41760	2.201e-01
8.620	1.42816	2.822e-01
8.660	1.48918	3.430e-01
8.700	1.59021	3.547e-01
8.740	1.67496	3.030e-01
8.780	1.71081	2.293e-01
8.820	1.71180	1.673e-01
8.860	1.69825	1.233e-01
8.900	1.68085	9.347e-02
8.940	1.66375	7.298e-02
8.980	1.64818	5.861e-02
9.020	1.63435	4.828e-02
9.060	1.62209	4.070e-02
9.100	1.61115	3.507e-02
9.140	1.60123	3.089e-02
9.180	1.59205	2.794e-02
9.220	1.58334	2.618e-02
9.260	1.57482	2.599e-02
9.300	1.56665	2.863e-02
9.340	1.56199	3.652e-02
9.380	1.57035	4.316e-02
9.420	1.57767	3.302e-02
9.460	1.57341	2.330e-02
9.500	1.56699	1.839e-02
9.540	1.56102	1.580e-02
9.580	1.55566	1.431e-02
9.620	1.55073	1.342e-02
9.660	1.54608	1.291e-02
9.700	1.54157	1.271e-02
9.740	1.53709	1.279e-02
9.780	1.53252	1.320e-02
9.820	1.52774	1.400e-02
9.860	1.52260	1.537e-02
9.900	1.51691	1.762e-02
9.940	1.51050	2.139e-02
9.980	1.50340	2.796e-02
10.020	1.49689	3.994e-02
10.060	1.49751	6.014e-02
10.100	1.51823	7.776e-02
10.140	1.54227	6.906e-02
10.180	1.54597	5.354e-02
10.220	1.54117	4.710e-02
10.260	1.53718	4.806e-02
10.300	1.53769	5.267e-02
10.340	1.54385	5.634e-02
10.380	1.55288	5.471e-02
10.420	1.55962	4.779e-02
10.460	1.56186	3.921e-02
10.500	1.56070	3.175e-02
10.540	1.55784	2.617e-02
10.580	1.55435	2.228e-02
10.620	1.55078	1.971e-02
10.660	1.54734	1.817e-02
10.700	1.54418	1.745e-02
10.740	1.54136	1.745e-02
10.780	1.53904	1.809e-02
10.820	1.53742	1.924e-02
10.860	1.53673	2.064e-02
10.900	1.53710	2.180e-02
10.940	1.53827	2.212e-02
10.980	1.53959	2.129e-02
11.020	1.54037	1.953e-02
11.060	1.54031	1.738e-02
11.100	1.53951	1.531e-02
11.140	1.53819	1.353e-02
11.180	1.53659	1.213e-02
11.220	1.53482	1.106e-02
11.260	1.53298	1.028e-02
11.300	1.53111	9.759e-03
11.340	1.52921	9.461e-03
11.380	1.52729	9.372e-03
11.420	1.52534	9.494e-03
11.460	1.52335	9.845e-03
11.500	1.52131	1.046e-02
11.540	1.51922	1.142e-02
11.580	1.51709	1.280e-02
11.620	1.51499	1.477e-02
11.660	1.51308	1.750e-02
11.700	1.51169	2.120e-02
11.740	1.51145	2.597e-02
11.780	1.51329	3.140e-02
11.820	1.51800	3.613e-02
11.860	1.52498	3.805e-02
11.900	1.53183	3.610e-02
11.940	1.53625	3.153e-02
11.980	1.53776	2.643e-02
12.020	1.53703	2.220e-02
12.060	1.53479	1.966e-02
12.100	1.53275	2.094e-02
12.140	1.53720	1.880e-02
12.180	1.53453	1.458e-02
12.220	1.53158	1.369e-02
12.260	1.52933	1.419e-02
12.300	1.52813	1.569e-02
12.340	1.52869	1.749e-02
12.380	1.53093	1.791e-02
12.420	1.53296	1.608e-02
12.460	1.53332	1.329e-02
12.500	1.53237	1.090e-02
12.540	1.53084	9.188e-03
12.580	1.52915	8.042e-03
12.620	1.52744	7.292e-03
12.660	1.52576	6.821e-03
12.700	1.52410	6.558e-03
12.740	1.52244	6.464e-03
12.780	1.52075	6.525e-03
12.820	1.51901	6.741e-03
12.860	1.51719	7.132e-03
12.900	1.51524	7.736e-03
12.940	1.51312	8.620e-03
12.980	1.51081	9.891e-03
13.020	1.50825	1.172e-02
13.060	1.50546	1.438e-02
13.100	1.50253	1.832e-02
13.140	1.49989	2.420e-02
13.180	1.49870	3.286e-02
13.220	1.50164	4.441e-02
13.260	1.51237	5.571e-02
13.300	1.53004	5.910e-02
13.340	1.54549	5.143e-02
13.380	1.55268	3.940e-02
13.420	1.55370	2.901e-02
13.460	1.55198	2.155e-02
13.500	1.54945	1.646e-02
13.540	1.54687	1.295e-02
13.580	1.54450	1.049e-02
13.620	1.54238	8.710e-03
13.660	1.54052	7.390e-03
13.700	1.53889	6.386e-03
13.740	1.53744	5.606e-03
13.780	1.53616	4.987e-03
13.820	1.53501	4.487e-03
13.860	1.53397	4.078e-03
13.900	1.53304	3.738e-03
13.940	1.53218	3.452e-03
13.980	1.53139	3.208e-03
14.020	1.53067	2.999e-03
14.060	1.53000	2.818e-03
14.100	1.52937	2.659e-03
14.140	1.52879	2.519e-03
14.180	1.52824	2.395e-03
14.220	1.52773	2.284e-03
14.260	1.52724	2.185e-03
14.300	1.52678	2.095e-03
14.340	1.52635	2.014e-03
14.380	1.52593	1.940e-03
14.420	1.52554	1.872e-03
14.460	1.52516	1.810e-03
14.500	1.52480	1.753e-03
14.540	1.52446	1.700e-03
14.580	1.52413	1.650e-03
14.620	1.52381	1.604e-03
14.660	1.52350	1.562e-03
14.700	1.52321	1.522e-03
14.740	1.52292	1.484e-03
14.780	1.52265	1.449e-03
14.820	1.52238	1.416e-03
14.860	1.52213	1.384e-03
14.900	1.52188	1.355e-03
14.940	1.52163	1.326e-03
14.980	1.52140	1.300e-03
15.020	1.52117	1.274e-03
15.060	1.52095	1.250e-03
15.100	1.52074	1.227e-03
15.140	1.52053	1.205e-03
15.180	1.52032	1.184e-03
15.220	1.52012	1.164e-03
15.260	1.51993	1.145e-03
15.300	1.51974	1.126e-03
15.340	1.51956	1.108e-03
15.380	1.51938	1.091e-03
15.420	1.51920	1.075e-03
15.460	1.51903	1.059e-03
15.500	1.51886	1.044e-03
15.540	1.51870	1.029e-03
15.580	1.51854	1.015e-03
15.620	1.51838	1.001e-03
15.660	1.51822	9.879e-04
15.700	1.51807	9.750e-04
15.740	1.51792	9.625e-04
15.780	1.51778	9.505e-04
15.820	1.51764	9.388e-04
15.860	1.51750	9.274e-04
15.900	1.51736	9.164e-04
15.940	1.51723	9.057e-04
15.980	1.51709	8.952e-04
16.020	1.51696	8.851e-04
16.060	1.51684	8.753e-04
16.100	1.51671	8.657e-04
16.140	1.51659	8.563e-04
16.180	1.51647	8.472e-04
16.220	1.51635	8.384e-04
16.260	1.51623	8.297e-04
16.300	1.51612	8.213e-04
16.340	1.51600	8.130e-04
16.380	1.51589	8.050e-04
16.420	1.51578	7.971e-04
16.460	1.51568	7.895e-04
16.500	1.51557	7.820e-04
16.540	1.51547	7.747e-04
16.580	1.51536	7.675e-04
16.620	1.51526	7.605e-04
16.660	1.51516	7.536e-04
16.700	1.51506	7.469e-04
16.740	1.51497	7.403e-04
16.780	1.51487	7.339e-04
16.820	1.51478	7.276e-04
16.860	1.51469	7.214e-04
16.900	1.51459	7.153e-04
16.940	1.51450	7.094e-04
16.980	1.51442	7.035e-04
17.020	1.51433	6.978e-04
17.060	1.51424	6.922e-04
17.100	1.51416	6.867e-04
17.140	1.51407	6.813e-04
17.180	1.51399	6.760e-04
17.220	1.51391	6.708e-04
17.260	1.51383	6.657e-04
17.300	1.51375	6.606e-04
17.340	1.51367	6.557e-04
17.380	1.51359	6.508e-04
17.420	1.51351	6.461e-04
17.460	1.51344	6.414e-04
17.500	1.51336	6.368e-04
17.540	1.51329	6.322e-04
17.580	1.51322	6.278e-04
17.620	1.51314	6.234e-04
17.660	1.51307	6.190e-04
17.700	1.51300	6.148e-04
17.740	1.51293	6.106e-04
17.780	1.51287	6.065e-04
17.820	1.51280	6.024e-04
17.860	1.51273	5.984e-04
17.900	1.51266	5.945e-04
17.940	1.51260	5.906e-04
17.980	1.51253	5.868e-04
18.020	1.51247	5.830e-04
18.060	1.51241	5.793e-04
18.100	1.51234	5.757e-04
18.140	1.51228	5.721e-04
18.180	1.51222	5.685e-04
