Material: main / NiPS3 / Zotev
Optical constants. P. G. Zotev, Y. Wang, D. Andres-Penares, T. Severs-Millard, S. Randerson, X. Hu, L. Sortino, C. Louca, M. Brotons-Gisbert, T. Huq, S. Vezzoli, R. Sapienza, T. F. Krauss, B. D. Gerardot, A. I. Tartakovskii. Van der Waals materials for applications in nanophotonics. Laser and Photonics Rev. 17, 2200957 (2023) (Numerical data kindly provided by Panaiot Zotev)
Comments: Multilayer crystals. Isotropic. Room temperature.
wavelength (um)	n	k
0.360	3.091	1.074
0.363	3.045	0.999
0.366	2.998	0.941
0.370	2.952	0.896
0.373	2.910	0.863
0.376	2.870	0.838
0.379	2.834	0.821
0.382	2.801	0.809
0.386	2.771	0.801
0.389	2.745	0.798
0.392	2.722	0.798
0.395	2.701	0.800
0.398	2.683	0.804
0.402	2.667	0.810
0.405	2.654	0.818
0.408	2.643	0.827
0.411	2.634	0.836
0.414	2.627	0.847
0.418	2.621	0.859
0.421	2.618	0.871
0.424	2.616	0.884
0.427	2.615	0.897
0.430	2.617	0.910
0.434	2.619	0.924
0.437	2.624	0.937
0.440	2.629	0.951
0.443	2.636	0.965
0.446	2.645	0.978
0.450	2.655	0.992
0.453	2.666	1.005
0.456	2.678	1.018
0.459	2.692	1.031
0.462	2.707	1.043
0.466	2.723	1.054
0.469	2.741	1.065
0.472	2.759	1.075
0.475	2.779	1.085
0.478	2.800	1.093
0.482	2.822	1.101
0.485	2.845	1.107
0.488	2.868	1.113
0.491	2.893	1.117
0.494	2.918	1.120
0.498	2.943	1.121
0.501	2.970	1.121
0.504	2.996	1.119
0.507	3.023	1.116
0.510	3.050	1.112
0.514	3.077	1.106
0.517	3.104	1.098
0.520	3.130	1.089
0.523	3.156	1.078
0.526	3.182	1.066
0.530	3.207	1.053
0.532	3.225	1.041
0.534	3.242	1.030
0.538	3.265	1.013
0.541	3.286	0.996
0.544	3.307	0.977
0.547	3.326	0.958
0.550	3.345	0.938
0.554	3.361	0.917
0.557	3.377	0.896
0.560	3.392	0.874
0.563	3.405	0.852
0.566	3.418	0.830
0.570	3.429	0.808
0.573	3.439	0.785
0.576	3.448	0.763
0.579	3.456	0.741
0.582	3.463	0.719
0.586	3.469	0.697
0.589	3.475	0.676
0.592	3.480	0.654
0.595	3.483	0.633
0.598	3.487	0.612
0.602	3.490	0.591
0.605	3.491	0.571
0.608	3.492	0.551
0.611	3.493	0.531
0.614	3.493	0.512
0.618	3.493	0.493
0.621	3.492	0.474
0.624	3.490	0.456
0.627	3.489	0.437
0.630	3.487	0.419
0.634	3.483	0.402
0.637	3.480	0.385
0.640	3.477	0.368
0.643	3.473	0.351
0.646	3.469	0.335
0.650	3.464	0.319
0.653	3.458	0.304
0.656	3.453	0.289
0.659	3.448	0.274
0.662	3.443	0.260
0.666	3.436	0.246
0.669	3.429	0.232
0.672	3.422	0.219
0.675	3.415	0.206
0.678	3.408	0.193
0.682	3.401	0.181
0.685	3.393	0.170
0.688	3.384	0.158
0.691	3.376	0.147
0.694	3.368	0.137
0.698	3.360	0.127
0.701	3.352	0.117
0.704	3.343	0.108
0.707	3.334	0.099
0.710	3.325	0.091
0.714	3.316	0.083
0.717	3.307	0.075
0.720	3.299	0.068
0.723	3.290	0.061
0.726	3.280	0.055
0.730	3.271	0.049
0.733	3.262	0.043
0.736	3.253	0.038
0.739	3.245	0.033
0.742	3.236	0.028
0.746	3.227	0.024
0.749	3.218	0.020
0.752	3.210	0.017
0.755	3.201	0.014
0.758	3.193	0.011
0.762	3.185	0.008
0.765	3.177	0.006
0.768	3.168	0.005
0.771	3.160	0.003
0.774	3.154	0.002
0.778	3.147	0.001
0.781	3.141	0.001
0.784	3.134	0
0.787	3.128	0
0.790	3.122	0
0.794	3.116	0
0.797	3.110	0
0.800	3.104	0
0.803	3.099	0
0.806	3.095	0
0.810	3.091	0
0.813	3.086	0
0.816	3.082	0
0.819	3.078	0
0.822	3.074	0
0.826	3.070	8.772E-5
0.829	3.066	7.615E-5
0.832	3.062	6.546E-5
0.835	3.059	5.563E-5
0.838	3.055	4.664E-5
0.842	3.052	3.849E-5
0.845	3.049	3.116E-5
0.848	3.045	2.464E-5
0.851	3.042	1.892E-5
0.854	3.039	1.397E-5
0.858	3.036	9.798E-6
0.861	3.033	6.379E-6
0.864	3.030	3.703E-6
0.867	3.027	1.759E-6
0.870	3.024	5.352E-7
0.874	3.022	1.959E-8
0.877	3.019	0
0.880	3.017	0
0.883	3.014	0
0.886	3.012	0
0.890	3.010	0
0.893	3.007	0
0.896	3.005	0
0.899	3.003	0
0.902	3.000	0
0.906	2.998	0
0.909	2.996	0
0.912	2.994	0
0.915	2.992	0
0.918	2.990	0
0.922	2.988	0
0.925	2.986	0
0.928	2.984	0
0.931	2.982	0
0.934	2.980	0
0.938	2.978	0
0.941	2.977	0
0.944	2.975	0
0.947	2.973	0
0.950	2.971	0
0.954	2.970	0
0.957	2.968	0
0.960	2.966	0
0.963	2.965	0
0.966	2.963	0
0.970	2.962	0
0.973	2.960	0
0.976	2.959	0
0.979	2.957	0
0.982	2.956	0
0.986	2.954	0
0.989	2.953	0
0.992	2.952	0
0.995	2.950	0
0.998	2.949	0
