Material: commercial polymers / Kapton / Zhang
Optical constants. Z. M. Zhang, G. Lefever-Button, F. R. Powell. Infrared refractive index and extinction coefficient of polyimide films. Int. J. Thermophys. 19, 905-916 (1998) [Calculation script (Python)]
Comments: Lorentz-Drude model
wavelength (um)	n	k
1.667	1.75077	1.167e-05
1.715	1.75059	1.292e-05
1.765	1.75039	1.435e-05
1.815	1.75019	1.591e-05
1.865	1.74999	1.764e-05
1.915	1.74977	1.955e-05
1.965	1.74954	2.167e-05
2.015	1.74931	2.405e-05
2.065	1.74906	2.673e-05
2.115	1.74880	2.977e-05
2.165	1.74854	3.326e-05
2.215	1.74826	3.734e-05
2.265	1.74796	4.220e-05
2.315	1.74765	4.812e-05
2.365	1.74732	5.560e-05
2.415	1.74697	6.544e-05
2.465	1.74660	7.919e-05
2.515	1.74618	1.001e-04
2.565	1.74571	1.356e-04
2.615	1.74515	2.079e-04
2.665	1.74441	4.040e-04
2.715	1.74332	1.284e-03
2.765	1.74526	3.105e-03
2.815	1.74475	1.058e-03
2.865	1.74286	3.150e-03
2.915	1.74571	9.556e-04
2.965	1.74427	4.077e-04
3.015	1.74332	3.524e-04
3.065	1.74245	4.104e-04
3.115	1.74148	5.996e-04
3.165	1.74027	1.144e-03
3.215	1.73894	3.123e-03
3.265	1.74243	6.022e-03
3.315	1.74374	2.338e-03
3.365	1.74235	1.025e-03
3.415	1.74119	6.240e-04
3.465	1.74019	4.740e-04
3.515	1.73925	4.295e-04
3.565	1.73824	4.784e-04
3.615	1.73701	7.948e-04
3.665	1.73605	3.021e-03
3.715	1.73844	1.564e-03
3.765	1.73700	5.989e-04
3.815	1.73587	4.155e-04
3.865	1.73488	3.596e-04
3.915	1.73394	3.413e-04
3.965	1.73299	3.385e-04
4.015	1.73204	3.442e-04
4.065	1.73106	3.552e-04
4.115	1.73005	3.703e-04
4.165	1.72899	3.888e-04
4.215	1.72790	4.104e-04
4.265	1.72675	4.352e-04
4.315	1.72556	4.632e-04
4.365	1.72430	4.947e-04
4.415	1.72297	5.298e-04
4.465	1.72157	5.691e-04
4.515	1.72008	6.130e-04
4.565	1.71851	6.623e-04
4.615	1.71683	7.176e-04
4.665	1.71504	7.800e-04
4.715	1.71313	8.506e-04
4.765	1.71107	9.311e-04
4.815	1.70884	1.023e-03
4.865	1.70643	1.130e-03
4.915	1.70379	1.254e-03
4.965	1.70091	1.399e-03
5.015	1.69772	1.572e-03
5.065	1.69417	1.780e-03
5.115	1.69019	2.033e-03
5.165	1.68567	2.348e-03
5.215	1.68047	2.748e-03
5.265	1.67438	3.269e-03
5.315	1.66712	3.968e-03
5.365	1.65821	4.951e-03
5.415	1.64687	6.415e-03
5.465	1.63161	8.804e-03
5.515	1.60915	1.337e-02
5.565	1.56968	2.563e-02
5.615	1.47461	1.135e-01
5.665	1.70460	1.124e-01
5.715	1.57618	7.608e-02
5.765	1.44850	1.955e-01
5.815	1.67333	6.258e-01
5.865	2.02353	2.308e-01
5.915	1.91389	7.695e-02
5.965	1.84727	3.874e-02
6.015	1.80608	2.531e-02
6.065	1.77561	2.107e-02
6.115	1.74839	2.638e-02
6.165	1.74424	5.748e-02
6.215	1.76329	3.041e-02
6.265	1.74193	1.614e-02
6.315	1.72263	1.292e-02
6.365	1.70368	1.275e-02
6.415	1.68186	1.471e-02
6.465	1.65204	2.051e-02
6.515	1.60062	3.962e-02
6.565	1.48636	1.609e-01
6.615	1.93633	3.095e-01
6.665	1.83504	5.760e-02
6.715	1.76769	2.977e-02
6.765	1.72899	2.837e-02
6.815	1.71139	2.911e-02
6.865	1.68434	2.534e-02
6.915	1.65375	2.979e-02
6.965	1.61457	4.428e-02
7.015	1.56889	1.150e-01
7.065	1.66236	1.063e-01
7.115	1.59685	7.878e-02
7.165	1.52881	1.053e-01
7.215	1.44880	1.725e-01
7.265	1.36396	3.288e-01
7.315	1.40893	6.502e-01
7.365	1.85438	8.627e-01
7.415	2.20671	5.520e-01
7.465	2.18571	2.776e-01
7.515	2.10537	1.554e-01
7.565	2.04001	9.862e-02
7.615	1.99097	6.906e-02
7.665	1.95306	5.246e-02
7.715	1.92204	4.319e-02
7.765	1.89481	3.954e-02
7.815	1.86939	4.374e-02
7.865	1.85476	6.486e-02
7.915	1.87662	6.653e-02
7.965	1.86564	4.320e-02
8.015	1.84234	3.892e-02
8.065	1.81846	4.924e-02
8.115	1.80212	8.395e-02
8.165	1.84538	1.311e-01
8.215	1.89928	8.909e-02
8.265	1.88950	4.784e-02
8.315	1.87096	3.084e-02
8.365	1.85467	2.386e-02
8.415	1.83984	2.224e-02
8.465	1.82712	2.988e-02
8.515	1.83686	3.085e-02
8.565	1.82647	2.007e-02
8.615	1.81441	1.846e-02
8.665	1.80294	1.955e-02
8.715	1.79077	2.272e-02
8.765	1.77662	2.938e-02
8.815	1.75962	4.461e-02
8.865	1.75031	8.350e-02
8.915	1.80239	1.135e-01
8.965	1.82035	7.492e-02
9.015	1.80292	6.335e-02
9.065	1.78760	7.136e-02
9.115	1.78048	9.131e-02
9.165	1.78875	1.185e-01
9.215	1.81850	1.391e-01
9.265	1.85785	1.348e-01
9.315	1.88354	1.097e-01
9.365	1.89062	8.193e-02
9.415	1.88715	6.049e-02
9.465	1.87973	4.566e-02
9.515	1.87132	3.566e-02
9.565	1.86292	2.898e-02
9.615	1.85459	2.475e-02
9.665	1.84588	2.307e-02
9.715	1.83635	2.670e-02
9.765	1.83942	4.338e-02
9.815	1.85703	2.892e-02
9.865	1.84962	1.690e-02
9.915	1.84256	1.279e-02
9.965	1.83706	1.079e-02
10.015	1.83250	9.544e-03
10.065	1.82850	8.674e-03
10.115	1.82488	8.024e-03
10.165	1.82152	7.521e-03
10.215	1.81834	7.126e-03
10.265	1.81530	6.817e-03
10.315	1.81235	6.577e-03
10.365	1.80946	6.399e-03
10.415	1.80660	6.275e-03
10.465	1.80374	6.204e-03
10.515	1.80085	6.184e-03
10.565	1.79790	6.217e-03
10.615	1.79486	6.309e-03
10.665	1.79170	6.467e-03
10.715	1.78836	6.705e-03
10.765	1.78478	7.043e-03
10.815	1.78088	7.515e-03
10.865	1.77655	8.178e-03
10.915	1.77162	9.129e-03
10.965	1.76582	1.056e-02
11.015	1.75872	1.285e-02
11.065	1.74953	1.696e-02
11.115	1.73708	2.558e-02
11.165	1.72178	4.785e-02
11.215	1.73464	1.021e-01
11.265	1.80784	9.029e-02
11.315	1.80619	4.608e-02
11.365	1.78932	3.223e-02
11.415	1.77532	3.018e-02
11.465	1.76469	3.381e-02
11.515	1.75869	4.036e-02
11.565	1.75714	4.460e-02
11.615	1.75343	4.423e-02
11.665	1.74393	4.466e-02
11.715	1.73046	4.976e-02
11.765	1.71456	6.126e-02
11.815	1.69742	8.194e-02
11.865	1.68259	1.170e-01
11.915	1.68196	1.728e-01
11.965	1.72254	2.416e-01
12.015	1.81718	2.734e-01
12.065	1.90454	2.306e-01
12.115	1.93636	1.627e-01
12.165	1.93338	1.108e-01
12.215	1.91943	7.774e-02
12.265	1.90399	5.707e-02
12.315	1.88968	4.385e-02
12.365	1.87680	3.521e-02
12.415	1.86494	2.971e-02
12.465	1.85327	2.712e-02
12.515	1.84097	3.030e-02
12.565	1.84405	4.726e-02
12.615	1.85636	2.908e-02
12.665	1.84591	1.897e-02
12.715	1.83689	1.563e-02
12.765	1.82925	1.410e-02
12.815	1.82221	1.339e-02
12.865	1.81531	1.328e-02
12.915	1.80819	1.388e-02
12.965	1.80053	1.567e-02
13.015	1.79250	2.008e-02
13.065	1.78802	2.934e-02
13.115	1.79384	3.282e-02
13.165	1.79045	2.532e-02
13.215	1.77776	2.318e-02
13.265	1.76036	3.135e-02
13.315	1.76918	4.247e-02
13.365	1.74749	3.621e-02
13.415	1.71916	5.018e-02
13.465	1.68354	8.632e-02
13.515	1.65549	1.807e-01
13.565	1.77695	3.314e-01
13.615	1.96746	2.287e-01
13.665	1.96005	1.076e-01
13.715	1.92398	6.013e-02
13.765	1.89581	4.056e-02
13.815	1.87468	3.168e-02
13.865	1.85787	2.781e-02
13.915	1.84353	2.690e-02
13.965	1.83048	2.833e-02
14.015	1.81792	3.220e-02
14.065	1.80539	3.931e-02
14.115	1.79308	5.135e-02
14.165	1.78282	7.119e-02
14.215	1.78102	1.019e-01
14.265	1.80161	1.390e-01
14.315	1.85084	1.564e-01
14.365	1.89728	1.344e-01
14.415	1.91468	9.761e-02
14.465	1.91251	6.848e-02
14.515	1.90348	4.958e-02
14.565	1.89301	3.786e-02
14.615	1.88263	3.080e-02
14.665	1.87239	2.715e-02
14.715	1.86176	2.698e-02
14.765	1.85049	3.279e-02
14.815	1.84487	5.240e-02
14.865	1.87516	6.966e-02
14.915	1.89393	4.168e-02
14.965	1.88641	2.382e-02
15.015	1.87781	1.639e-02
15.065	1.87099	1.280e-02
15.115	1.86551	1.079e-02
15.165	1.86094	9.557e-03
15.215	1.85697	8.774e-03
15.265	1.85340	8.297e-03
15.315	1.85011	8.065e-03
15.365	1.84700	8.072e-03
15.415	1.84399	8.354e-03
15.465	1.84105	9.011e-03
15.515	1.83820	1.023e-02
15.565	1.83563	1.232e-02
15.615	1.83407	1.560e-02
15.665	1.83500	1.953e-02
15.715	1.83901	2.129e-02
15.765	1.84267	1.883e-02
15.815	1.84323	1.483e-02
15.865	1.84172	1.168e-02
15.915	1.83950	9.643e-03
15.965	1.83715	8.385e-03
16.015	1.83486	7.621e-03
16.065	1.83264	7.178e-03
16.115	1.83051	6.955e-03
16.165	1.82841	6.899e-03
16.215	1.82634	6.982e-03
16.265	1.82427	7.195e-03
16.315	1.82217	7.543e-03
16.365	1.82001	8.040e-03
16.415	1.81779	8.716e-03
16.465	1.81547	9.618e-03
16.515	1.81304	1.081e-02
16.565	1.81051	1.240e-02
16.615	1.80791	1.453e-02
16.665	1.80533	1.739e-02
16.715	1.80300	2.123e-02
16.765	1.80143	2.631e-02
16.815	1.80150	3.260e-02
16.865	1.80439	3.936e-02
16.915	1.81071	4.454e-02
16.965	1.81899	4.567e-02
17.015	1.82601	4.235e-02
17.065	1.82964	3.673e-02
17.115	1.83000	3.116e-02
17.165	1.82819	2.677e-02
17.215	1.82518	2.381e-02
17.265	1.82152	2.221e-02
17.315	1.81751	2.188e-02
17.365	1.81334	2.287e-02
17.415	1.80930	2.542e-02
17.465	1.80603	2.985e-02
17.515	1.80492	3.611e-02
17.565	1.80777	4.250e-02
17.615	1.81400	4.512e-02
17.665	1.81888	4.244e-02
17.715	1.81918	3.795e-02
17.765	1.81580	3.502e-02
17.815	1.81051	3.475e-02
17.865	1.80443	3.741e-02
17.915	1.79837	4.339e-02
17.965	1.79351	5.344e-02
18.015	1.79233	6.827e-02
18.065	1.79928	8.662e-02
18.115	1.81842	1.018e-01
18.165	1.84527	1.034e-01
18.215	1.86667	8.999e-02
18.265	1.87600	7.142e-02
18.315	1.87635	5.537e-02
18.365	1.87232	4.377e-02
18.415	1.86662	3.599e-02
18.465	1.86042	3.111e-02
18.515	1.85413	2.847e-02
18.565	1.84785	2.776e-02
18.615	1.84161	2.903e-02
18.665	1.83556	3.272e-02
18.715	1.83040	3.969e-02
18.765	1.82815	5.097e-02
18.815	1.83331	6.583e-02
18.865	1.85020	7.724e-02
18.915	1.87256	7.444e-02
18.965	1.88666	5.978e-02
19.015	1.89013	4.424e-02
19.065	1.88806	3.260e-02
19.115	1.88417	2.467e-02
19.165	1.88006	1.931e-02
19.215	1.87624	1.559e-02
19.265	1.87284	1.294e-02
19.315	1.86984	1.099e-02
19.365	1.86720	9.502e-03
19.415	1.86486	8.349e-03
19.465	1.86278	7.432e-03
19.515	1.86092	6.690e-03
19.565	1.85924	6.078e-03
19.615	1.85771	5.567e-03
19.665	1.85631	5.135e-03
19.715	1.85503	4.764e-03
19.765	1.85385	4.444e-03
19.815	1.85275	4.165e-03
19.865	1.85173	3.919e-03
19.915	1.85078	3.702e-03
19.965	1.84989	3.508e-03
