Material: main / MoS2 / Zotev-e
Optical constants. P. G. Zotev, Y. Wang, D. Andres-Penares, T. Severs-Millard, S. Randerson, X. Hu, L. Sortino, C. Louca, M. Brotons-Gisbert, T. Huq, S. Vezzoli, R. Sapienza, T. F. Krauss, B. D. Gerardot, A. I. Tartakovskii. Van der Waals materials for applications in nanophotonics. Laser and Photonics Rev. 17, 2200957 (2023) (Numerical data kindly provided by Panaiot Zotev)
Comments: Multilayer crystals. Out-of-plane (extraordinary ray, e). Room temperature.
wavelength (um)	n	k
0.3600	3.38122	0
0.3632	3.36510	0
0.3664	3.34942	0
0.3696	3.33413	0
0.3728	3.31924	0
0.3760	3.30473	0
0.3792	3.29059	0
0.3824	3.27679	0
0.3856	3.26334	0
0.3888	3.25022	0
0.3920	3.23742	0
0.3952	3.22493	0
0.3984	3.21274	0
0.4016	3.20084	0
0.4048	3.18922	0
0.4080	3.17787	0
0.4112	3.16679	0
0.4144	3.15596	0
0.4176	3.14538	0
0.4208	3.13504	0
0.4240	3.12494	0
0.4272	3.11506	0
0.4304	3.10540	0
0.4336	3.09595	0
0.4368	3.08671	0
0.4400	3.07767	0
0.4432	3.06883	0
0.4464	3.06017	0
0.4496	3.05170	0
0.4528	3.04341	0
0.4560	3.03529	0
0.4592	3.02734	0
0.4624	3.01956	0
0.4656	3.01194	0
0.4688	3.00447	0
0.4720	2.99715	0
0.4752	2.98998	0
0.4784	2.98295	0
0.4816	2.97607	0
0.4848	2.96932	0
0.4880	2.96270	0
0.4912	2.95621	0
0.4944	2.94985	0
0.4976	2.94360	0
0.5008	2.93748	0
0.5040	2.93147	0
0.5072	2.92558	0
0.5104	2.91980	0
0.5136	2.91413	0
0.5168	2.90856	0
0.5200	2.90309	0
0.5232	2.89772	0
0.5264	2.89245	0
0.5296	2.88728	0
0.5321	2.88330	0
0.5344	2.87969	0
0.5376	2.87475	0
0.5408	2.86989	0
0.5440	2.86511	0
0.5472	2.86042	0
0.5504	2.85582	0
0.5536	2.85129	0
0.5568	2.84684	0
0.5600	2.84246	0
0.5632	2.83816	0
0.5664	2.83394	0
0.5696	2.82978	0
0.5728	2.82570	0
0.5760	2.82168	0
0.5792	2.81772	0
0.5824	2.81384	0
0.5856	2.81001	0
0.5888	2.80625	0
0.5920	2.80255	0
0.5952	2.79891	0
0.5984	2.79533	0
0.6016	2.79180	0
0.6048	2.78833	0
0.6080	2.78491	0
0.6112	2.78155	0
0.6144	2.77824	0
0.6176	2.77499	0
0.6208	2.77178	0
0.6240	2.76862	0
0.6272	2.76551	0
0.6304	2.76244	0
0.6336	2.75943	0
0.6368	2.75646	0
0.6400	2.75353	0
0.6432	2.75064	0
0.6464	2.74780	0
0.6496	2.74500	0
0.6528	2.74225	0
0.6560	2.73953	0
0.6592	2.73685	0
0.6624	2.73421	0
0.6656	2.73161	0
0.6688	2.72905	0
0.6720	2.72652	0
0.6752	2.72403	0
0.6784	2.72157	0
0.6816	2.71915	0
0.6848	2.71676	0
0.6880	2.71440	0
0.6912	2.71208	0
0.6944	2.70979	0
0.6976	2.70753	0
0.7008	2.70530	0
0.7040	2.70311	0
0.7072	2.70094	0
0.7104	2.69880	0
0.7136	2.69669	0
0.7168	2.69461	0
0.7200	2.69255	0
0.7232	2.69053	0
0.7264	2.68853	0
0.7296	2.68655	0
0.7328	2.68460	0
0.7360	2.68268	0
0.7392	2.68078	0
0.7424	2.67891	0
0.7456	2.67706	0
0.7488	2.67523	0
0.7520	2.67343	0
0.7552	2.67165	0
0.7584	2.66990	0
0.7616	2.66816	0
0.7648	2.66645	0
0.7680	2.66476	0
0.7712	2.66309	0
0.7744	2.66144	0
0.7776	2.65981	0
0.7808	2.65819	0
0.7840	2.65660	0
0.7872	2.65503	0
0.7904	2.65348	0
0.7936	2.65195	0
0.7968	2.65044	0
0.8000	2.64894	0
0.8032	2.64746	0
0.8064	2.64600	0
0.8096	2.64456	0
0.8128	2.64313	0
0.8160	2.64172	0
0.8192	2.64032	0
0.8224	2.63895	0
0.8256	2.63759	0
0.8288	2.63624	0
0.8320	2.63491	0
0.8352	2.63360	0
0.8384	2.63230	0
0.8416	2.63101	0
0.8448	2.62974	0
0.8480	2.62848	0
0.8512	2.62724	0
0.8544	2.62602	0
0.8576	2.62480	0
0.8608	2.62360	0
0.8640	2.62241	0
0.8672	2.62124	0
0.8704	2.62008	0
0.8736	2.61893	0
0.8768	2.61779	0
0.8800	2.61667	0
0.8832	2.61556	0
0.8864	2.61446	0
0.8896	2.61337	0
0.8928	2.61229	0
0.8960	2.61123	0
0.8992	2.61018	0
0.9024	2.60913	0
0.9056	2.60810	0
0.9088	2.60708	0
0.9120	2.60607	0
0.9152	2.60507	0
0.9184	2.60409	0
0.9216	2.60311	0
0.9248	2.60214	0
0.9280	2.60118	0
0.9312	2.60024	0
0.9344	2.59930	0
0.9376	2.59837	0
0.9408	2.59745	0
0.9440	2.59654	0
0.9472	2.59564	0
0.9504	2.59475	0
0.9536	2.59386	0
0.9568	2.59299	0
0.9600	2.59212	0
0.9632	2.59127	0
0.9664	2.59042	0
0.9696	2.58958	0
0.9728	2.58875	0
0.9760	2.58792	0
0.9792	2.58711	0
0.9824	2.58630	0
0.9856	2.58550	0
0.9888	2.58471	0
0.9920	2.58393	0
0.9952	2.58315	0
0.9984	2.58238	0
