Material: specs / sumita / K-LaKn5
Optical constants. SUMITA Zemax catalog 2017-02-02 (obtained from http://www.sumita-opt.co.jp)See also SUMITA optical glass data book
Conditions: {"temperature": 293}
Properties: {"thermal_dispersion": [{"type": "formula A", "coefficients": "-8.68e-07 1.28e-08 -1.92e-10 5.01e-07 9.91e-10 0.169"}], "nd": 1.65, "Vd": 55.8, "glass_code": 650558, "density": [{"value": 3710}], "thermal_expansion": [{"temperature_range": "293 573", "value": "8e-06"}], "dPgF": -0.0011, "resistance": {"climatic": 2.0, "acid": 5.0}}
Dispersion formula 3, range 0.36 1.55 um, coefficients 2.6761221 -0.012108757 2 0.016143507 -2 0.00051920927 -4 -2.8395319e-05 -6 1.8554978e-06 -8
wavelength (um)	k
0.330	5.3577E-06
0.340	2.2460E-06
0.350	9.8944E-07
0.360	4.7910E-07
0.370	2.3911E-07
0.380	1.2344E-07
0.390	6.9040E-08
0.400	3.8428E-08
0.420	1.0042E-08
0.440	1.0520E-08
0.460	1.0998E-08
0.480	7.6471E-09
0.500	7.9657E-09
0.550	8.7623E-09
0.600	9.5589E-09
0.650	1.0355E-08
0.700	1.1152E-08
0.800	1.2745E-08
1.060	8.4777E-08
1.500	1.8041E-07
2.000	6.4970E-07
