Material: specs / sumita / K-PSKn2
Optical constants. SUMITA Zemax catalog 2017-02-02 (obtained from http://www.sumita-opt.co.jp)See also SUMITA optical glass data book
Conditions: {"temperature": 293}
Properties: {"thermal_dispersion": [{"type": "formula A", "coefficients": "-9.04e-06 1.1e-08 -2.48e-10 3.21e-07 4.56e-10 0.226"}], "nd": 1.618, "Vd": 63.4, "glass_code": 618634, "density": [{"value": 3630}], "thermal_expansion": [{"temperature_range": "243 343", "value": 7.9e-06}, {"temperature_range": "293 573", "value": 9.9e-06}], "dPgF": 0.0055, "resistance": {"climatic": 1.0, "acid": 5.0}}
Dispersion formula 3, range 0.36 1.55 um, coefficients 2.578886 -0.010381408 2 0.014233563 -2 0.00012483021 -4 1.7477672e-05 -6 -9.6204805e-07 -8
wavelength (um)	k
0.310	8.9102E-06
0.320	5.8635E-06
0.330	3.8367E-06
0.340	2.2772E-06
0.350	1.3359E-06
0.360	7.4132E-07
0.370	4.1342E-07
0.380	2.4230E-07
0.390	1.3641E-07
0.400	9.3675E-08
0.420	5.0514E-08
0.440	4.2271E-08
0.460	3.6790E-08
0.480	3.8389E-08
0.500	3.5972E-08
0.550	2.6340E-08
0.600	2.3933E-08
0.650	1.5541E-08
0.700	1.6736E-08
0.800	1.2745E-08
1.060	1.6887E-08
1.500	2.3897E-08
2.000	2.8909E-07
