Material: specs / sumita / K-PSFn3
Optical constants. SUMITA Zemax catalog 2017-02-02 (obtained from http://www.sumita-opt.co.jp)See also SUMITA optical glass data book
Conditions: {"temperature": 293}
Properties: {"thermal_dispersion": [{"type": "formula A", "coefficients": "-8.51e-06 1.46e-08 -1.46e-10 1.13e-06 1.15e-09 0.294"}], "nd": 1.83917, "Vd": 23.9, "glass_code": 839239, "density": [{"value": 3900}], "thermal_expansion": [{"temperature_range": "243 343", "value": 9.3e-06}, {"temperature_range": "293 573", "value": 1.18e-05}], "dPgF": 0.018, "resistance": {"climatic": 1.0, "acid": 1.0}}
Dispersion formula 3, range 0.4 1.55 um, coefficients 3.2268914 -0.014590158 2 0.047763869 -2 0.0027173637 -4 -9.5689164e-05 -6 2.7097845e-05 -8
wavelength (um)	k
0.380	6.7023E-06
0.390	3.4127E-06
0.400	1.9791E-06
0.420	8.7355E-07
0.440	4.8761E-07
0.460	3.2918E-07
0.480	2.4856E-07
0.500	1.8320E-07
0.550	7.9499E-08
0.600	4.7987E-08
0.650	3.6335E-08
0.700	3.9130E-08
0.800	3.1911E-08
1.060	1.6887E-08
1.500	7.1835E-08
2.000	5.0119E-07
