Material: specs / sumita / K-VC179
Optical constants. SUMITA Zemax catalog 2017-02-02 (obtained from http://www.sumita-opt.co.jp)See also SUMITA optical glass data book
Conditions: {"temperature": 293}
Properties: {"thermal_dispersion": [{"type": "formula A", "coefficients": "5.81e-06 1.54e-08 -1.28e-10 7.89e-07 6.03e-10 0.215"}], "nd": 1.7989, "Vd": 41.8, "glass_code": 799418, "density": [{"value": 4650}], "thermal_expansion": [{"temperature_range": "243 343", "value": 6.1e-06}, {"temperature_range": "293 573", "value": "8e-06"}], "dPgF": -0.0068, "resistance": {"climatic": 1.0, "acid": 3.0}}
Dispersion formula 3, range 0.36 1.55 um, coefficients 3.1494851 -0.013835107 2 0.029184533 -2 0.00080707995 -4 -6.1706552e-06 -6 2.3930989e-06 -8
wavelength (um)	k
0.340	1.6250E-05
0.350	6.6607E-06
0.360	3.0184E-06
0.370	1.4803E-06
0.380	8.1858E-07
0.390	5.0888E-07
0.400	2.9042E-07
0.420	1.5707E-07
0.440	7.0239E-08
0.460	3.6661E-08
0.480	2.5490E-08
0.500	2.6552E-08
0.550	2.9208E-08
0.600	3.1863E-08
0.650	3.4518E-08
0.700	3.7173E-08
0.800	4.2484E-08
1.060	5.6291E-08
1.500	7.9657E-08
2.000	1.3976E-06
