Material: main / MgO / Synowicki-UV
Optical constants. R.A. Synowicki and T. E. Tiwald. Optical properties of bulk c-ZrO2, c-MgO and a-As2S3 determined by variable angle spectroscopic ellipsometry. Thin Solid Films 455-456, 248-255 (2004) Calculation scripts (Python): Synowicki 2004 - MgO -- UV.py Synowicki 2004 - Aux funcs.py
Comments: Data generated from oscillator model.
wavelength (um)	n	k
1.3010e-01	2.1355e+00	7.0610e-01
1.3075e-01	2.1343e+00	6.9418e-01
1.3141e-01	2.1327e+00	6.8298e-01
1.3207e-01	2.1309e+00	6.7254e-01
1.3275e-01	2.1290e+00	6.6286e-01
1.3343e-01	2.1271e+00	6.5394e-01
1.3411e-01	2.1254e+00	6.4574e-01
1.3480e-01	2.1239e+00	6.3820e-01
1.3550e-01	2.1228e+00	6.3123e-01
1.3621e-01	2.1221e+00	6.2471e-01
1.3693e-01	2.1220e+00	6.1852e-01
1.3765e-01	2.1224e+00	6.1251e-01
1.3838e-01	2.1233e+00	6.0655e-01
1.3912e-01	2.1247e+00	6.0050e-01
1.3986e-01	2.1265e+00	5.9424e-01
1.4062e-01	2.1285e+00	5.8767e-01
1.4138e-01	2.1307e+00	5.8072e-01
1.4215e-01	2.1330e+00	5.7339e-01
1.4293e-01	2.1350e+00	5.6567e-01
1.4372e-01	2.1367e+00	5.5763e-01
1.4451e-01	2.1380e+00	5.4937e-01
1.4532e-01	2.1387e+00	5.4104e-01
1.4613e-01	2.1388e+00	5.3280e-01
1.4695e-01	2.1381e+00	5.2487e-01
1.4779e-01	2.1367e+00	5.1747e-01
1.4863e-01	2.1345e+00	5.1087e-01
1.4948e-01	2.1318e+00	5.0530e-01
1.5034e-01	2.1286e+00	5.0105e-01
1.5121e-01	2.1251e+00	4.9837e-01
1.5209e-01	2.1216e+00	4.9752e-01
1.5299e-01	2.1183e+00	4.9874e-01
1.5389e-01	2.1156e+00	5.0223e-01
1.5480e-01	2.1139e+00	5.0810e-01
1.5572e-01	2.1131e+00	5.1620e-01
1.5666e-01	2.1116e+00	5.2654e-01
1.5761e-01	2.1056e+00	5.4383e-01
1.5856e-01	2.0978e+00	5.8331e-01
1.5953e-01	2.1176e+00	6.5430e-01
1.6052e-01	2.1786e+00	7.2475e-01
1.6151e-01	2.2932e+00	8.2861e-01
1.6251e-01	2.5709e+00	8.2737e-01
1.6353e-01	2.7781e+00	6.0524e-01
1.6457e-01	2.8020e+00	3.3033e-01
1.6561e-01	2.6971e+00	1.3219e-01
1.6667e-01	2.5624e+00	3.8354e-02
1.6774e-01	2.4550e+00	8.8071e-03
1.6882e-01	2.3804e+00	2.4063e-03
1.6992e-01	2.3267e+00	1.2360e-03
1.7104e-01	2.2850e+00	8.8809e-04
1.7217e-01	2.2506e+00	6.7770e-04
1.7331e-01	2.2213e+00	5.2465e-04
1.7447e-01	2.1957e+00	4.1265e-04
1.7564e-01	2.1730e+00	3.3162e-04
1.7683e-01	2.1526e+00	2.7354e-04
1.7804e-01	2.1341e+00	2.3219e-04
1.7926e-01	2.1171e+00	2.0280e-04
1.8051e-01	2.1015e+00	1.8180e-04
1.8176e-01	2.0869e+00	1.6657e-04
1.8304e-01	2.0734e+00	1.5523e-04
1.8433e-01	2.0606e+00	1.4644e-04
1.8564e-01	2.0487e+00	1.3927e-04
1.8697e-01	2.0374e+00	1.3311e-04
1.8832e-01	2.0267e+00	1.2753e-04
1.8969e-01	2.0166e+00	1.2228e-04
1.9108e-01	2.0069e+00	1.1719e-04
1.9249e-01	1.9977e+00	1.1216e-04
1.9392e-01	1.9889e+00	1.0715e-04
1.9537e-01	1.9805e+00	1.0214e-04
1.9685e-01	1.9724e+00	9.7124e-05
1.9834e-01	1.9647e+00	9.2126e-05
1.9986e-01	1.9572e+00	8.7163e-05
2.0141e-01	1.9501e+00	8.2259e-05
2.0297e-01	1.9432e+00	7.7442e-05
2.0457e-01	1.9365e+00	7.2742e-05
2.0618e-01	1.9301e+00	6.8187e-05
2.0782e-01	1.9238e+00	6.3810e-05
2.0949e-01	1.9178e+00	5.9640e-05
2.1119e-01	1.9120e+00	5.5707e-05
2.1291e-01	1.9063e+00	5.2041e-05
2.1466e-01	1.9008e+00	4.8668e-05
2.1645e-01	1.8955e+00	4.5609e-05
2.1826e-01	1.8903e+00	4.2880e-05
2.2010e-01	1.8853e+00	4.0490e-05
2.2197e-01	1.8804e+00	3.8437e-05
2.2387e-01	1.8757e+00	3.6707e-05
2.2581e-01	1.8711e+00	3.5273e-05
2.2778e-01	1.8666e+00	3.4096e-05
2.2979e-01	1.8622e+00	3.3125e-05
2.3183e-01	1.8580e+00	3.2300e-05
2.3391e-01	1.8538e+00	3.1554e-05
2.3603e-01	1.8498e+00	3.0821e-05
2.3818e-01	1.8458e+00	3.0039e-05
2.4038e-01	1.8420e+00	2.9156e-05
2.4261e-01	1.8382e+00	2.8139e-05
2.4489e-01	1.8346e+00	2.6970e-05
2.4721e-01	1.8310e+00	2.5659e-05
2.4957e-01	1.8275e+00	2.4233e-05
2.5198e-01	1.8241e+00	2.2742e-05
2.5444e-01	1.8207e+00	2.1247e-05
2.5695e-01	1.8175e+00	1.9817e-05
2.5950e-01	1.8143e+00	1.8515e-05
2.6211e-01	1.8112e+00	1.7389e-05
2.6477e-01	1.8081e+00	1.6469e-05
2.6749e-01	1.8052e+00	1.5751e-05
2.7026e-01	1.8022e+00	1.5206e-05
2.7309e-01	1.7994e+00	1.4776e-05
2.7597e-01	1.7966e+00	1.4386e-05
2.7892e-01	1.7939e+00	1.3958e-05
2.8194e-01	1.7912e+00	1.3420e-05
2.8502e-01	1.7886e+00	1.2719e-05
2.8817e-01	1.7860e+00	1.1831e-05
2.9139e-01	1.7835e+00	1.0764e-05
2.9468e-01	1.7811e+00	9.5535e-06
2.9804e-01	1.7787e+00	8.2546e-06
3.0149e-01	1.7763e+00	6.9343e-06
3.0501e-01	1.7740e+00	5.6581e-06
3.0862e-01	1.7717e+00	4.4823e-06
3.1231e-01	1.7695e+00	3.4470e-06
3.1610e-01	1.7674e+00	2.5738e-06
3.1997e-01	1.7652e+00	1.8672e-06
3.2395e-01	1.7632e+00	1.3176e-06
3.2802e-01	1.7611e+00	9.0611e-07
3.3220e-01	1.7591e+00	6.0894e-07
3.3648e-01	1.7572e+00	4.0154e-07
3.4088e-01	1.7553e+00	2.6125e-07
3.4539e-01	1.7534e+00	1.6895e-07
3.5003e-01	1.7516e+00	1.0960e-07
3.5479e-01	1.7498e+00	7.2062e-08
3.5968e-01	1.7480e+00	4.8479e-08
3.6470e-01	1.7463e+00	3.3602e-08
3.6987e-01	1.7446e+00	2.4048e-08
3.7519e-01	1.7429e+00	1.7728e-08
3.8067e-01	1.7413e+00	1.3386e-08
3.8630e-01	1.7397e+00	1.0283e-08
3.9211e-01	1.7382e+00	7.9856e-09
3.9809e-01	1.7367e+00	6.2395e-09
4.0426e-01	1.7352e+00	4.8878e-09
4.1062e-01	1.7337e+00	3.8303e-09
4.1719e-01	1.7323e+00	2.9984e-09
4.2397e-01	1.7309e+00	2.3429e-09
4.3097e-01	1.7295e+00	1.8266e-09
4.3821e-01	1.7282e+00	1.4205e-09
4.4570e-01	1.7269e+00	1.1018e-09
4.5345e-01	1.7256e+00	8.5230e-10
4.6147e-01	1.7244e+00	6.5753e-10
4.6978e-01	1.7232e+00	5.0589e-10
4.7839e-01	1.7220e+00	3.8815e-10
4.8733e-01	1.7208e+00	2.9701e-10
4.9660e-01	1.7197e+00	2.2665e-10
5.0624e-01	1.7185e+00	1.7249e-10
5.1625e-01	1.7175e+00	1.3091e-10
5.2668e-01	1.7164e+00	9.9084e-11
5.3753e-01	1.7154e+00	7.4790e-11
5.4884e-01	1.7144e+00	5.6298e-11
5.6063e-01	1.7134e+00	4.2263e-11
5.7294e-01	1.7124e+00	3.1641e-11
5.8581e-01	1.7115e+00	2.3625e-11
5.9926e-01	1.7106e+00	1.7591e-11
6.1335e-01	1.7097e+00	1.3062e-11
6.2812e-01	1.7088e+00	9.6730e-12
6.4361e-01	1.7080e+00	7.1436e-12
6.5989e-01	1.7072e+00	5.2613e-12
6.7701e-01	1.7064e+00	3.8645e-12
6.9505e-01	1.7056e+00	2.8308e-12
7.1407e-01	1.7049e+00	2.0679e-12
7.3417e-01	1.7041e+00	1.5065e-12
7.5543e-01	1.7034e+00	1.0945e-12
7.7795e-01	1.7028e+00	7.9302e-13
8.0186e-01	1.7021e+00	5.7304e-13
8.2729e-01	1.7015e+00	4.1295e-13
8.5438e-01	1.7008e+00	2.9677e-13
8.8331e-01	1.7002e+00	2.1269e-13
9.1426e-01	1.6997e+00	1.5202e-13
9.4747e-01	1.6991e+00	1.0835e-13
9.8317e-01	1.6986e+00	7.7026e-14
1.0217e+00	1.6981e+00	5.4606e-14
1.0633e+00	1.6976e+00	3.8606e-14
1.1085e+00	1.6971e+00	2.7220e-14
1.1577e+00	1.6967e+00	1.9139e-14
1.2114e+00	1.6962e+00	1.3421e-14
1.2704e+00	1.6958e+00	9.3854e-15
1.3355e+00	1.6955e+00	6.5457e-15
1.4075e+00	1.6951e+00	4.5528e-15
1.4878e+00	1.6947e+00	3.1579e-15
1.5777e+00	1.6944e+00	2.1844e-15
1.6793e+00	1.6941e+00	1.5069e-15
1.7948e+00	1.6938e+00	1.0367e-15
1.9274e+00	1.6935e+00	7.1129e-16
2.0811e+00	1.6933e+00	4.8669e-16
2.2616e+00	1.6931e+00	3.3210e-16
2.4762e+00	1.6928e+00	2.2597e-16
2.7359e+00	1.6927e+00	1.5333e-16
3.0564e+00	1.6925e+00	1.0372e-16
3.4619e+00	1.6923e+00	6.9933e-17
3.9916e+00	1.6922e+00	4.6959e-17
4.7126e+00	1.6921e+00	3.1344e-17
5.7515e+00	1.6920e+00	2.0707e-17
7.3780e+00	1.6919e+00	1.3401e-17
1.0287e+01	1.6918e+00	8.2750e-18
1.6984e+01	1.6918e+00	4.5085e-18
