Material: specs / cdgm / H-ZF62GT
Optical constants. CDGM Zemax catalog 2022-06 (obtained from http://www.cdgmgd.com)See also CDGM optical glass data sheets
Conditions: {"temperature": 293}
Properties: {"thermal_dispersion": [{"type": "formula A", "coefficients": "-6.75e-06 1.69e-08 -4.1e-11 9.81e-07 1.32e-09 0.322"}], "nd": 1.92286, "Vd": 20.879915, "glass_code": 923209, "density": [{"value": 4010}], "thermal_expansion": [{"temperature_range": "243 343", "value": 6.4e-06}, {"temperature_range": "293 573", "value": 7.7e-06}], "dPgF": 0.0298, "resistance": {"climatic": 1.0}}
Dispersion formula 2, range 0.4047 2.325 um, coefficients 0 2.55246796 162.450683 0.465681607 0.069560081 2.0289468 0.014771138
wavelength (um)	k
0.380	1.2148E-05
0.390	3.8418E-06
0.400	1.2043E-06
0.420	2.7868E-07
0.440	1.5389E-07
0.460	1.1150E-07
0.480	8.4972E-08
0.500	7.2272E-08
0.550	3.0745E-08
0.600	1.9137E-08
0.650	1.0355E-08
0.700	1.1152E-08
0.800	1.2745E-08
0.850	1.3542E-08
0.900	1.4338E-08
0.950	1.5135E-08
1.000	1.5931E-08
1.060	1.6887E-08
1.200	1.9118E-08
1.400	2.2304E-08
1.600	5.1032E-08
1.800	1.5844E-07
2.000	3.3778E-07
2.200	6.2373E-07
2.400	1.2428E-06
