Material: specs / cdgm / H-ZF52GT
Optical constants. CDGM Zemax catalog 2022-06 (obtained from http://www.cdgmgd.com)See also CDGM optical glass data sheets
Conditions: {"temperature": 293}
Properties: {"thermal_dispersion": [{"type": "formula A", "coefficients": "-6.18e-06 1.63e-08 -4.5e-11 1.12e-06 1.19e-09 0.291"}], "nd": 1.84666, "Vd": 23.784497, "glass_code": 847238, "glass_status": "standard", "density": [{"value": 3510}], "thermal_expansion": [{"temperature_range": "243 343", "value": 8.8e-06}, {"temperature_range": "293 573", "value": 1.08e-05}], "dPgF": 0.0155, "resistance": {"climatic": 1.0}}
Dispersion formula 2, range 0.4047 2.325 um, coefficients 0 0.409982615 0.0621421199 2.37517176 185.055134 1.83913582 0.0136093459
wavelength (um)	k
0.370	7.0899E-06
0.380	2.4416E-06
0.390	1.0238E-06
0.400	5.9311E-07
0.420	2.7142E-07
0.440	1.7960E-07
0.460	1.3421E-07
0.480	1.0848E-07
0.500	9.2583E-08
0.550	5.7271E-08
0.600	4.3166E-08
0.650	4.1547E-08
0.700	3.9130E-08
0.800	3.8312E-08
0.850	2.0323E-08
0.900	2.1518E-08
0.950	2.2714E-08
1.000	2.3909E-08
1.060	2.5344E-08
1.200	1.9118E-08
1.400	5.5844E-08
1.600	1.1511E-07
1.800	3.3330E-07
2.000	6.1658E-07
2.200	1.2141E-06
2.400	2.4632E-06
