Material: misc / soda-lime / Kamptner
Optical constants. A. Kamptner, M. C. Scharber, M. Schiek. Accurate determination of the uniaxial complex refractive index and the optical band gap of polymer thin films to correlate their absorption strength and onset of absorption. Chem. Phys. Chem. e202400233 (2024) (See Supporting Information. Numerical data kindly provided by Manuela Schiek)
Comments: Glass objective slide (Marienfeld, 7.5 cm x 2.5 cm, 1 mm thick). "Air" side of the float glass. Float glass is produced by pouring molten glass onto liquid tin, so that the glass floats on top of the liquid tin while it cools down forming very flat sheets. Some tin diffuses into the glass surface facing the tin bath during the cooling procedure. This side of the glass, the "tin" side, receives different surface optical properties compared to the other side, the "air" side."
wavelength (um)	n	k
0.19146	1.72324	6.80E-05
0.19465	1.69961	8.10E-05
0.19784	1.68114	8.80E-05
0.20104	1.66610	9.30E-05
0.20423	1.65354	9.60E-05
0.20742	1.64286	9.90E-05
0.21062	1.63364	1.01E-04
0.21381	1.62559	1.02E-04
0.21701	1.61850	1.04E-04
0.22020	1.61220	1.06E-04
0.22340	1.60656	1.08E-04
0.22659	1.60149	1.11E-04
0.22979	1.59690	1.14E-04
0.23298	1.59272	1.18E-04
0.23618	1.58891	1.22E-04
0.23938	1.58542	1.25E-04
0.24257	1.58221	1.27E-04
0.24577	1.57925	1.27E-04
0.24897	1.57651	1.25E-04
0.25216	1.57397	1.20E-04
0.25536	1.57160	1.12E-04
0.25856	1.56939	1.03E-04
0.26176	1.56733	9.30E-05
0.26496	1.56539	8.30E-05
0.26815	1.56357	7.40E-05
0.27135	1.56185	6.50E-05
0.27455	1.56024	5.60E-05
0.27775	1.55871	4.90E-05
0.28095	1.55727	4.20E-05
0.28415	1.55591	3.50E-05
0.28735	1.55462	3.00E-05
0.29055	1.55339	2.50E-05
0.29375	1.55222	2.10E-05
0.29695	1.55112	1.70E-05
0.30015	1.55006	1.40E-05
0.30335	1.54906	1.10E-05
0.30655	1.54810	9.00E-06
0.30975	1.54718	7.00E-06
0.31295	1.54631	6.00E-06
0.31615	1.54547	5.00E-06
0.31935	1.54467	4.00E-06
0.32255	1.54391	3.00E-06
0.32576	1.54317	3.00E-06
0.32896	1.54247	2.00E-06
0.33216	1.54179	2.00E-06
0.33536	1.54114	2.00E-06
0.33856	1.54052	1.00E-06
0.34176	1.53992	1.00E-06
0.34497	1.53934	1.00E-06
0.34817	1.53878	1.00E-06
0.35137	1.53825	1.00E-06
0.35457	1.53773	0
0.35777	1.53723	0
0.36098	1.53675	0
0.36418	1.53628	0
0.36738	1.53583	0
0.37058	1.53540	0
0.37379	1.53498	0
0.37699	1.53457	0
0.38019	1.53418	0
0.38339	1.53380	0
0.38660	1.53343	0
0.38980	1.53307	0
0.39300	1.53273	0
0.39621	1.53239	0
0.39941	1.53207	0
0.40261	1.53175	0
0.40581	1.53144	0
0.40902	1.53115	0
0.41222	1.53086	0
0.41542	1.53057	0
0.41863	1.53030	0
0.42183	1.53004	0
0.42503	1.52978	0
0.42823	1.52953	0
0.43144	1.52928	0
0.43464	1.52904	0
0.43784	1.52881	0
0.44105	1.52858	0
0.44425	1.52836	0
0.44745	1.52815	0
0.45065	1.52794	0
0.45386	1.52773	0
0.45706	1.52754	0
0.46026	1.52734	0
0.46346	1.52715	0
0.46667	1.52697	0
0.46987	1.52679	0
0.47307	1.52661	0
0.47627	1.52644	0
0.47947	1.52627	0
0.48267	1.52611	0
0.48588	1.52594	0
0.48908	1.52579	0
0.49228	1.52563	0
0.49548	1.52548	0
0.49868	1.52534	0
0.50188	1.52519	0
0.50508	1.52505	0
0.50828	1.52492	0
0.51149	1.52478	0
0.51469	1.52465	0
0.51789	1.52452	0
0.52109	1.52440	0
0.52429	1.52427	0
0.52749	1.52415	0
0.53069	1.52403	0
0.53389	1.52392	0
0.53709	1.52380	0
0.54028	1.52369	0
0.54348	1.52358	0
0.54668	1.52347	0
0.54988	1.52337	0
0.55308	1.52327	0
0.55628	1.52317	0
0.55948	1.52307	0
0.56267	1.52297	0
0.56587	1.52288	0
0.56907	1.52278	0
0.57227	1.52269	0
0.57546	1.52260	0
0.57866	1.52251	0
0.58186	1.52242	0
0.58505	1.52234	0
0.58825	1.52225	0
0.59144	1.52217	0
0.59464	1.52209	0
0.59783	1.52201	0
0.60103	1.52194	0
0.60422	1.52186	0
0.60742	1.52178	0
0.61061	1.52171	0
0.61381	1.52164	0
0.61700	1.52157	0
0.62019	1.52149	0
0.62339	1.52143	0
0.62658	1.52136	0
0.62977	1.52129	0
0.63296	1.52123	0
0.63616	1.52116	0
0.63935	1.52110	0
0.64254	1.52103	0
0.64573	1.52097	0
0.64892	1.52091	0
0.65211	1.52085	0
0.65530	1.52079	0
0.65849	1.52074	0
0.66168	1.52068	0
0.66487	1.52062	0
0.66805	1.52057	0
0.67124	1.52051	0
0.67443	1.52046	0
0.67762	1.52041	0
0.68080	1.52036	0
0.68399	1.52031	0
0.68718	1.52025	0
0.69036	1.52021	0
0.69355	1.52016	0
0.69673	1.52011	0
0.69992	1.52006	0
0.70310	1.52001	0
0.70628	1.51997	0
0.70947	1.51992	0
0.71265	1.51988	0
0.71583	1.51984	0
0.71902	1.51979	0
0.72220	1.51975	0
0.72538	1.51971	0
0.72856	1.51967	0
0.73174	1.51962	0
0.73492	1.51958	0
0.73810	1.51954	0
0.74128	1.51951	0
0.74446	1.51947	0
0.74763	1.51943	0
0.75081	1.51939	0
0.75399	1.51935	0
0.75716	1.51932	0
0.76034	1.51928	0
0.76352	1.51925	0
0.76669	1.51921	0
0.76987	1.51917	0
0.77304	1.51914	0
0.77621	1.51911	0
0.77939	1.51907	0
0.78256	1.51904	0
0.78573	1.51901	0
0.78890	1.51898	0
0.79207	1.51894	0
0.79524	1.51891	0
0.79841	1.51888	0
0.80158	1.51885	0
0.80475	1.51882	0
0.80792	1.51879	0
0.81109	1.51876	0
0.81425	1.51873	0
0.81742	1.51870	0
0.82058	1.51868	0
0.82375	1.51865	0
0.82691	1.51862	0
0.83008	1.51859	0
0.83324	1.51857	0
0.83641	1.51854	0
0.83957	1.51851	0
0.84273	1.51849	0
0.84589	1.51846	0
0.84905	1.51844	0
0.85221	1.51841	0
0.85537	1.51839	0
0.85853	1.51836	0
0.86169	1.51834	0
0.86484	1.51831	0
0.86800	1.51829	0
0.87116	1.51827	0
0.87431	1.51824	0
0.87747	1.51822	0
0.88062	1.51820	0
0.88377	1.51818	0
0.88693	1.51815	0
0.89008	1.51813	0
0.89323	1.51811	0
0.89638	1.51809	0
0.89953	1.51807	0
0.90268	1.51805	0
0.90583	1.51803	0
0.90898	1.51801	0
0.91212	1.51798	0
0.91527	1.51797	0
0.91842	1.51795	0
0.92156	1.51793	0
0.92470	1.51791	0
0.92785	1.51789	0
0.93099	1.51787	0
0.93413	1.51785	0
0.93728	1.51783	0
0.94042	1.51781	0
0.94356	1.51779	0
0.94669	1.51778	0
0.94983	1.51776	0
0.95297	1.51774	0
0.95611	1.51772	0
0.95924	1.51771	0
0.96238	1.51769	0
0.96551	1.51767	0
0.96865	1.51766	0
0.97178	1.51764	0
0.97491	1.51762	0
0.97804	1.51761	0
0.98117	1.51759	0
0.98430	1.51757	0
0.98743	1.51756	0
0.99056	1.51754	0
0.99369	1.51753	0
0.99681	1.51751	0
0.99994	1.51750	0
1.01681	1.51742	0
1.02367	1.51739	0
1.03052	1.51736	0
1.03738	1.51733	0
1.04423	1.51730	0
1.05109	1.51727	0
1.05795	1.51724	0
1.06480	1.51722	0
1.07166	1.51719	0
1.07851	1.51716	0
1.08537	1.51714	0
1.09223	1.51711	0
1.09908	1.51709	0
1.10594	1.51706	0
1.11280	1.51704	0
1.11965	1.51702	0
1.12651	1.51699	0
1.13337	1.51697	0
1.14022	1.51695	0
1.14708	1.51693	0
1.15394	1.51690	0
1.16080	1.51688	0
1.16766	1.51686	0
1.17452	1.51684	0
1.18138	1.51682	0
1.18824	1.51680	0
1.19510	1.51679	0
1.20196	1.51677	0
1.20883	1.51675	0
1.21569	1.51673	0
1.22255	1.51671	0
1.22942	1.51669	0
1.23628	1.51668	0
1.24315	1.51666	0
1.25001	1.51664	0
1.25688	1.51663	0
1.26375	1.51661	0
1.27062	1.51659	0
1.27749	1.51658	0
1.28436	1.51656	0
1.29123	1.51655	0
1.29810	1.51653	0
1.30497	1.51652	0
1.31185	1.51650	0
1.31872	1.51649	0
1.32560	1.51648	0
1.33248	1.51646	0
1.33935	1.51645	0
1.34623	1.51644	0
1.35311	1.51642	0
1.36000	1.51641	0
1.36688	1.51640	0
1.37376	1.51638	0
1.38065	1.51637	0
1.38753	1.51636	0
1.39442	1.51635	0
1.40131	1.51634	0
1.40820	1.51632	0
1.41509	1.51631	0
1.42199	1.51630	0
1.42888	1.51629	0
1.43578	1.51628	0
1.44267	1.51627	0
1.44957	1.51626	0
1.45647	1.51625	0
1.46337	1.51624	0
1.47028	1.51623	0
1.47718	1.51622	0
1.48409	1.51621	0
1.49100	1.51620	0
1.49791	1.51619	0
1.50482	1.51618	0
1.51173	1.51617	0
1.51865	1.51616	0
1.52556	1.51615	0
1.53248	1.51614	0
1.53940	1.51613	0
1.54633	1.51612	0
1.55325	1.51612	0
1.56018	1.51611	0
1.56711	1.51610	0
1.57404	1.51609	0
1.58097	1.51608	0
1.58790	1.51607	0
1.59484	1.51607	0
1.60178	1.51606	0
1.60872	1.51605	0
1.61566	1.51604	0
1.62260	1.51603	0
1.62955	1.51603	0
1.63650	1.51602	0
1.64345	1.51601	0
1.65040	1.51601	0
1.65736	1.51600	0
1.66432	1.51599	0
1.67128	1.51598	0
1.67824	1.51598	0
1.68520	1.51597	0
