Material: specs / ohara / BAL3
Optical constants. OHARA Zemax catalog 2017-11-30 (obtained from http://www.ohara-inc.co.jp)See also OHARA glass data sheets
Conditions: {"temperature": 298}
Properties: {"thermal_dispersion": [{"type": "formula A", "coefficients": "-3.144e-06 0.0 0.0 0.0 0.0 0.0"}], "nd": 1.571351, "Vd": 52.968158, "glass_code": 571530, "glass_status": "preferred", "density": [{"value": 3140}], "thermal_expansion": [{"temperature_range": "243 343", "value": 9.7e-06}, {"temperature_range": "293 573", "value": 1.18e-05}], "dPgF": -0.0007}
Dispersion formula 3, range 0.365 0.9 um, coefficients 2.426175 -0.00781539 2 0.01476624 -2 0.0003669042 -4 -1.052689e-05 -6 1.039369e-06 -8
wavelength (um)	k
0.350	2.4437E-07
0.360	1.2891E-07
0.370	7.1527E-08
0.380	5.4927E-08
0.390	4.0610E-08
0.400	2.2360E-08
0.420	2.3478E-08
0.440	2.4596E-08
0.460	2.2030E-08
0.480	1.9146E-08
0.500	1.5947E-08
0.550	1.3150E-08
0.600	1.9137E-08
0.650	2.5928E-08
0.700	2.2326E-08
0.800	2.5516E-08
0.900	3.5900E-08
