Material: specs / ohara / BAM23
Optical constants. OHARA Zemax catalog 2017-11-30 (obtained from http://www.ohara-inc.co.jp)See also OHARA glass data sheets
Conditions: {"temperature": 298}
Properties: {"thermal_dispersion": [{"type": "formula A", "coefficients": "2.923e-06 0.0 0.0 0.0 0.0 0.0"}], "nd": 1.607167, "Vd": 40.26316, "glass_code": 607403, "glass_status": "preferred", "density": [{"value": 3480}], "thermal_expansion": [{"temperature_range": "243 343", "value": 8.9e-06}, {"temperature_range": "293 573", "value": 1.03e-05}], "dPgF": 0.0008, "resistance": {"acid": 1.0, "phosphate": 1.0}}
Dispersion formula 3, range 0.3 2.4 um, coefficients 2.5222179 -0.0087270222 2 0.020177286 -2 0.00061839451 -4 1.8063926e-07 -6 2.0159505e-06 -8
wavelength (um)	k
0.320	5.8635E-06
0.330	1.9274E-06
0.340	7.7836E-07
0.350	3.8787E-07
0.360	2.0482E-07
0.370	1.2941E-07
0.380	9.2107E-08
0.390	6.2700E-08
0.400	4.1652E-08
0.420	3.0216E-08
0.440	3.1655E-08
0.460	2.5714E-08
0.480	1.9146E-08
0.500	1.5947E-08
0.550	8.7623E-09
0.600	1.4345E-08
0.650	2.0732E-08
0.700	1.6736E-08
0.800	1.2745E-08
0.900	1.4338E-08
