Material: specs / ohara / BSL21
Optical constants. OHARA Zemax catalog 2017-11-30 (obtained from http://www.ohara-inc.co.jp)See also OHARA glass data sheets
Conditions: {"temperature": 298}
Properties: {"thermal_dispersion": [{"type": "formula A", "coefficients": "3.189e-06 0.0 0.0 0.0 0.0 0.0"}], "nd": 1.503779, "Vd": 66.814545, "glass_code": 504668, "glass_status": "preferred", "density": [{"value": 2460}], "thermal_expansion": [{"temperature_range": "243 343", "value": 6.2e-06}, {"temperature_range": "293 573", "value": "7e-06"}], "dPgF": -0.003, "resistance": {"acid": 1.0, "phosphate": 1.0}}
Dispersion formula 3, range 0.3 2.4 um, coefficients 2.234734 -0.0097856687 2 0.0098367633 -2 0.00021398416 -4 -1.4554893e-05 -6 8.7393721e-07 -8
wavelength (um)	k
0.300	1.7030E-06
0.310	7.7636E-07
0.320	3.8407E-07
0.330	1.9906E-07
0.340	1.0763E-07
0.350	6.1959E-08
0.360	3.7486E-08
0.370	2.9592E-08
0.380	3.6507E-08
0.390	1.5557E-08
0.400	1.2758E-08
0.420	1.6753E-08
0.440	1.4034E-08
0.460	1.0998E-08
0.480	7.6471E-09
0.500	7.9657E-09
0.550	8.7623E-09
0.600	9.5589E-09
0.650	1.0355E-08
0.700	5.5732E-09
