Material: specs / ohara / BSM16
Optical constants. OHARA Zemax catalog 2017-11-30 (obtained from http://www.ohara-inc.co.jp)See also OHARA glass data sheets
Conditions: {"temperature": 298}
Properties: {"thermal_dispersion": [{"type": "formula A", "coefficients": "1.3568e-06 0.0 0.0 0.0 0.0 0.0"}], "nd": 1.62041, "Vd": 60.271913, "glass_code": 620603, "glass_status": "preferred", "density": [{"value": 3570}], "thermal_expansion": [{"temperature_range": "243 343", "value": 6.6e-06}, {"temperature_range": "293 573", "value": 7.7e-06}], "dPgF": -0.0012}
Dispersion formula 3, range 0.365 0.9 um, coefficients 2.585926 -0.0114351 2 0.01387296 -2 0.0005169618 -4 -3.768293e-05 -6 2.058449e-06 -8
wavelength (um)	k
0.360	2.5762E-07
0.370	1.5413E-07
0.380	9.8348E-08
0.390	6.9040E-08
0.400	4.8108E-08
0.420	3.6968E-08
0.440	3.5190E-08
0.460	2.9402E-08
0.480	2.2987E-08
0.500	1.5947E-08
0.550	1.3150E-08
0.600	1.4345E-08
0.650	2.0732E-08
0.700	1.6736E-08
