Material: specs / ohara / BSM21
Optical constants. OHARA Zemax catalog 2017-11-30 (obtained from http://www.ohara-inc.co.jp)See also OHARA glass data sheets
Conditions: {"temperature": 298}
Properties: {"thermal_dispersion": [{"type": "formula A", "coefficients": "2.3634e-06 0.0 0.0 0.0 0.0 0.0"}], "nd": 1.617196, "Vd": 54.040511, "glass_code": 617540, "glass_status": "preferred", "density": [{"value": 3630}], "thermal_expansion": [{"temperature_range": "243 343", "value": 6.3e-06}, {"temperature_range": "293 573", "value": 7.3e-06}], "dPgF": -0.0026}
Dispersion formula 3, range 0.365 0.9 um, coefficients 2.567869 -0.008657333 2 0.01659137 -2 0.0002865545 -4 -3.488675e-06 -6 8.927552e-07 -8
wavelength (um)	k
0.370	2.5834E-07
0.380	1.5829E-07
0.390	1.0414E-07
0.400	6.4307E-08
0.420	3.6968E-08
0.440	2.8124E-08
0.460	2.5714E-08
0.480	1.9146E-08
0.500	1.1955E-08
0.550	8.7623E-09
0.600	1.4345E-08
0.650	2.0732E-08
0.700	1.6736E-08
