Material: specs / ohara / FTL8
Optical constants. OHARA Zemax catalog 2017-11-30 (obtained from http://www.ohara-inc.co.jp)See also OHARA glass data sheets
Conditions: {"temperature": 298}
Properties: {"thermal_dispersion": [{"type": "formula A", "coefficients": "-5.081e-06 0.0 0.0 0.0 0.0 0.0"}], "nd": 1.511179, "Vd": 51.020607, "glass_code": 511510, "glass_status": "preferred", "density": [{"value": 2500}], "thermal_expansion": [{"temperature_range": "243 343", "value": "9e-06"}, {"temperature_range": "293 573", "value": "1e-05"}], "dPgF": 0.0058, "resistance": {"acid": 1.0, "phosphate": 1.0}}
Dispersion formula 3, range 0.3 2.4 um, coefficients 2.2498663 -0.010009969 2 0.010686269 -2 0.00098510593 -4 -0.00010138667 -6 7.0446543e-06 -8
wavelength (um)	k
0.350	1.2826E-05
0.360	4.6107E-06
0.370	1.7603E-06
0.380	7.5133E-07
0.390	3.0979E-07
0.400	1.5992E-07
0.420	7.4350E-08
0.440	5.2919E-08
0.460	3.6790E-08
0.480	3.0681E-08
0.500	2.3945E-08
0.550	1.3150E-08
0.600	1.4345E-08
0.650	1.5541E-08
0.700	1.6736E-08
