Material: specs / ohara / L-LAH81
Optical constants. OHARA Zemax catalog 2017-11-30 (obtained from http://www.ohara-inc.co.jp)See also OHARA glass data sheets
Comments: Low Softening Temperature
Conditions: {"temperature": 298}
Properties: {"thermal_dispersion": [{"type": "formula A", "coefficients": "7.78e-06 1.14e-08 -1.69e-11 7.56e-07 7.92e-10 0.241"}], "nd": 1.8061, "Vd": 40.400738, "glass_code": 806404, "glass_status": "special", "density": [{"value": 4530}], "thermal_expansion": [{"temperature_range": "243 343", "value": 5.8e-06}, {"temperature_range": "293 573", "value": 7.3e-06}], "dPgF": -0.0057, "resistance": {"climatic": 2.0, "acid": 51.2, "phosphate": 1.2}}
Dispersion formula 2, range 0.34 2.4 um, coefficients 0 1.89927344 0.0102901828 0.270978866 0.0424227173 1.33163819 100.967566
wavelength (um)	k
0.340	6.5150E-06
0.350	2.7692E-06
0.360	1.2341E-06
0.370	6.2044E-07
0.380	3.5239E-07
0.390	2.1856E-07
0.400	1.4990E-07
0.420	8.8048E-08
0.440	6.3599E-08
0.460	4.7899E-08
0.480	3.4533E-08
0.500	2.3945E-08
0.550	1.3150E-08
0.600	1.4345E-08
0.650	1.0355E-08
0.700	1.1152E-08
0.800	6.3694E-09
0.900	7.1656E-09
1.000	7.9617E-09
1.200	1.9118E-08
1.400	5.5844E-08
1.600	8.9440E-08
1.800	2.1649E-07
2.000	5.5054E-07
2.200	1.6511E-06
2.400	6.2740E-06
