Material: specs / ohara / LAM51
Optical constants. OHARA Zemax catalog 2017-11-30 (obtained from http://www.ohara-inc.co.jp)See also OHARA glass data sheets
Conditions: {"temperature": 298}
Properties: {"thermal_dispersion": [{"type": "formula A", "coefficients": "4.8618e-06 0.0 0.0 0.0 0.0 0.0"}], "nd": 1.699998, "Vd": 48.078869, "glass_code": 700481, "glass_status": "preferred", "density": [{"value": 4090}], "thermal_expansion": [{"temperature_range": "243 343", "value": 7.8e-06}, {"temperature_range": "293 573", "value": 8.8e-06}], "dPgF": -0.0016}
Dispersion formula 3, range 0.365 0.9 um, coefficients 2.830675 -0.01254193 2 0.01928173 -2 0.00113639 -4 -8.838415e-05 -6 5.822869e-06 -8
wavelength (um)	k
0.390	2.8929E-07
0.400	1.8007E-07
0.420	1.0180E-07
0.440	8.1473E-08
0.460	6.6490E-08
0.480	4.9982E-08
0.500	3.5972E-08
0.550	2.6340E-08
0.600	3.3540E-08
0.650	3.6335E-08
0.700	2.7922E-08
0.800	3.1911E-08
0.900	2.8705E-08
