Material: specs / ohara / PBH25W
Optical constants. OHARA Zemax catalog 2017-11-30 (obtained from http://www.ohara-inc.co.jp)See also OHARA glass data sheets
Conditions: {"temperature": 298}
Properties: {"thermal_dispersion": [{"type": "formula A", "coefficients": "1.2821e-05 0.0 0.0 0.0 0.0 0.0"}], "nd": 1.761797, "Vd": 27.107726, "glass_code": 762271, "glass_status": "preferred", "density": [{"value": 4790}], "thermal_expansion": [{"temperature_range": "243 343", "value": 7.5e-06}, {"temperature_range": "293 573", "value": 8.5e-06}], "dPgF": 0.0085}
Dispersion formula 3, range 0.365 0.9 um, coefficients 2.983028 -0.01043595 2 0.03634647 -2 0.002619412 -4 -0.0001751318 -6 2.13251e-05 -8
wavelength (um)	k
0.420	1.3644E-07
0.440	7.0738E-08
0.460	4.4192E-08
0.480	3.0681E-08
0.500	1.9944E-08
0.550	8.7623E-09
0.600	9.5589E-09
0.650	1.0355E-08
0.700	1.1152E-08
0.800	6.3694E-09
0.900	7.1656E-09
