Material: specs / ohara / PBM39
Optical constants. OHARA Zemax catalog 2017-11-30 (obtained from http://www.ohara-inc.co.jp)See also OHARA glass data sheets
Conditions: {"temperature": 298}
Properties: {"thermal_dispersion": [{"type": "formula A", "coefficients": "9.676e-06 0.0 0.0 0.0 0.0 0.0"}], "nd": 1.666799, "Vd": 33.046816, "glass_code": 667331, "glass_status": "preferred", "density": [{"value": 4019}], "thermal_expansion": [{"temperature_range": "243 343", "value": 7.6e-06}, {"temperature_range": "293 573", "value": 8.6e-06}], "dPgF": 0.0014, "resistance": {"acid": 1.2, "phosphate": 2.0}}
Dispersion formula 3, range 0.3 2.4 um, coefficients 2.6957457 -0.010264221 2 0.025940795 -2 0.0014263975 -4 -6.8645974e-05 -6 8.2048945e-06 -8
wavelength (um)	k
0.330	1.2093E-05
0.340	4.3545E-06
0.350	1.7683E-06
0.360	9.0158E-07
0.370	5.1336E-07
0.380	3.1189E-07
0.390	1.9864E-07
0.400	1.2994E-07
0.420	6.7523E-08
0.440	4.5817E-08
0.460	3.3094E-08
0.480	2.6832E-08
0.500	1.9944E-08
0.550	8.7623E-09
0.600	1.4345E-08
0.650	2.0732E-08
0.700	1.6736E-08
0.800	6.3694E-09
0.900	7.1656E-09
