Material: specs / ohara / PBM8
Optical constants. OHARA Zemax catalog 2017-11-30 (obtained from http://www.ohara-inc.co.jp)See also OHARA glass data sheets
Conditions: {"temperature": 298}
Properties: {"thermal_dispersion": [{"type": "formula A", "coefficients": "3.609e-06 0.0 0.0 0.0 0.0 0.0"}], "nd": 1.595508, "Vd": 39.213424, "glass_code": 596392, "glass_status": "preferred", "density": [{"value": 3360}], "thermal_expansion": [{"temperature_range": "243 343", "value": 8.5e-06}, {"temperature_range": "293 573", "value": 9.6e-06}], "dPgF": -0.0009, "resistance": {"acid": 1.0, "phosphate": 2.0}}
Dispersion formula 3, range 0.3 2.4 um, coefficients 2.4842899 -0.0082629825 2 0.020412922 -2 0.00059654654 -4 -4.9991757e-06 -6 2.8060192e-06 -8
wavelength (um)	k
0.320	5.0067E-06
0.330	1.5226E-06
0.340	5.3694E-07
0.350	2.2015E-07
0.360	1.0801E-07
0.370	6.2490E-08
0.380	4.8774E-08
0.390	2.8058E-08
0.400	1.5955E-08
0.420	1.3396E-08
0.440	1.4034E-08
0.460	1.0998E-08
0.480	1.1476E-08
0.500	1.1955E-08
0.550	8.7623E-09
0.600	9.5589E-09
0.650	1.5541E-08
0.700	1.1152E-08
0.800	6.3694E-09
0.900	1.4338E-08
