Material: specs / ohara / S-BAM4
Optical constants. OHARA Zemax catalog 2017-11-30 (obtained from http://www.ohara-inc.co.jp)See also OHARA glass data sheets
Comments: Recommended
Conditions: {"temperature": 298}
Properties: {"thermal_dispersion": [{"type": "formula A", "coefficients": "-1.96e-06 1.25e-08 -3.24e-11 5e-07 6.02e-10 0.288"}], "nd": 1.60562, "Vd": 43.706978, "glass_code": 606437, "density": [{"value": 2910}], "thermal_expansion": [{"temperature_range": "243 343", "value": 8.4e-06}, {"temperature_range": "293 573", "value": 9.7e-06}], "dPgF": 0.0013, "resistance": {"climatic": 1.0, "acid": 1.0, "phosphate": 1.0}}
Dispersion formula 2, range 0.35 2.4 um, coefficients 0 1.41059317 0.00963312192 0.111201306 0.049877821 1.34148939 152.237696
wavelength (um)	k
0.350	7.8359E-06
0.360	2.5542E-06
0.370	9.6724E-07
0.380	4.2112E-07
0.390	1.9864E-07
0.400	1.1340E-07
0.420	4.7122E-08
0.440	3.1655E-08
0.460	3.3094E-08
0.480	2.6832E-08
0.500	1.9944E-08
0.550	8.7623E-09
0.600	1.4345E-08
0.650	2.0732E-08
0.700	1.6736E-08
0.800	6.3694E-09
0.900	1.4338E-08
1.000	1.5931E-08
1.200	1.9118E-08
1.400	5.5844E-08
1.600	7.6624E-08
1.800	2.8938E-07
2.000	6.1658E-07
2.200	1.4788E-06
2.400	2.2256E-06
