Material: specs / ohara / S-LAH67
Optical constants. OHARA Zemax catalog 2017-11-30 (obtained from http://www.ohara-inc.co.jp)See also OHARA glass data sheets
Conditions: {"temperature": 298}
Properties: {"thermal_dispersion": [{"type": "formula A", "coefficients": "4.95e-06 0.0 0.0 0.0 0.0 0.0"}], "nd": 1.794997, "Vd": 45.293967, "glass_code": 795453, "glass_status": "preferred", "density": [{"value": 4290}], "thermal_expansion": [{"temperature_range": "243 343", "value": "6e-06"}, {"temperature_range": "293 573", "value": 6.9e-06}], "dPgF": -0.0083, "resistance": {"acid": 4.2, "phosphate": 1.0}}
Dispersion formula 3, range 0.3 2.4 um, coefficients 3.1439609 -0.015541721 2 0.026648169 -2 0.00077813143 -4 -1.9462248e-05 -6 2.4668548e-06 -8
wavelength (um)	k
0.330	6.0467E-06
0.340	3.4442E-06
0.350	1.9868E-06
0.360	1.2341E-06
0.370	7.6955E-07
0.380	4.9145E-07
0.390	3.1323E-07
0.400	2.2758E-07
0.420	1.4341E-07
0.440	1.0304E-07
0.460	7.7690E-08
0.480	5.3854E-08
0.500	3.5972E-08
0.550	1.7542E-08
0.600	1.9137E-08
0.650	1.5541E-08
0.700	1.1152E-08
