Material: specs / ohara / S-TIM2
Optical constants. OHARA Zemax catalog 2017-11-30 (obtained from http://www.ohara-inc.co.jp)See also OHARA glass data sheets
Comments: Recommended - Lightweight
Conditions: {"temperature": 298}
Properties: {"thermal_dispersion": [{"type": "formula A", "coefficients": "1.62e-07 1.19e-08 -3.5e-11 6.49e-07 8.6e-10 0.291"}], "nd": 1.620041, "Vd": 36.263378, "glass_code": 620363, "density": [{"value": 2690}], "thermal_expansion": [{"temperature_range": "243 343", "value": 8.1e-06}, {"temperature_range": "293 573", "value": 9.5e-06}], "dPgF": 0.0051, "resistance": {"climatic": 2.0, "acid": 1.0, "phosphate": 1.0}}
Dispersion formula 2, range 0.36 2.4 um, coefficients 0 1.42193846 0.0107291511 0.133827968 0.0572587546 1.45060574 145.381805
wavelength (um)	k
0.360	7.2357E-06
0.370	2.4173E-06
0.380	9.5167E-07
0.390	4.3220E-07
0.400	1.9019E-07
0.420	7.4350E-08
0.440	4.5817E-08
0.460	3.6790E-08
0.480	3.0681E-08
0.500	2.3945E-08
0.550	1.3150E-08
0.600	1.4345E-08
0.650	2.0732E-08
0.700	1.6736E-08
0.800	6.3694E-09
0.900	7.1656E-09
1.000	7.9617E-09
1.200	9.5541E-09
1.400	5.5844E-08
1.600	6.3822E-08
1.800	2.3104E-07
2.000	4.6837E-07
2.200	1.2705E-06
2.400	1.7174E-06
