Material: specs / ohara / S-TIL6
Optical constants. OHARA Zemax catalog 2017-11-30 (obtained from http://www.ohara-inc.co.jp)See also OHARA glass data sheets
Comments: Recommended - Lightweight
Conditions: {"temperature": 298}
Properties: {"thermal_dispersion": [{"type": "formula A", "coefficients": "-4.53e-07 1.01e-08 -3.81e-11 4.89e-07 4.59e-10 0.277"}], "nd": 1.531717, "Vd": 48.840718, "glass_code": 532489, "density": [{"value": 2500}], "thermal_expansion": [{"temperature_range": "243 343", "value": 9.6e-06}, {"temperature_range": "293 573", "value": 9.6e-06}], "dPgF": 0.0007, "resistance": {"climatic": 2.0, "acid": 1.0, "phosphate": 1.0}}
Dispersion formula 2, range 0.34 2.4 um, coefficients 0 1.17701777 0.00771087686 0.12795803 0.0411325328 1.34740124 154.531692
wavelength (um)	k
0.340	7.1950E-06
0.350	2.2866E-06
0.360	8.6260E-07
0.370	3.7639E-07
0.380	1.6148E-07
0.390	8.4947E-08
0.400	4.8108E-08
0.420	3.3591E-08
0.440	3.8729E-08
0.460	3.6790E-08
0.480	3.4533E-08
0.500	2.7950E-08
0.550	2.6340E-08
0.600	2.8734E-08
0.650	4.1547E-08
0.700	2.2326E-08
0.800	1.2745E-08
0.900	2.1518E-08
1.000	2.3909E-08
1.200	3.8274E-08
1.400	5.5844E-08
1.600	8.9440E-08
1.800	3.3330E-07
2.000	8.6670E-07
2.200	2.0402E-06
2.400	3.1039E-06
