Material: specs / ohara / TIH53
Optical constants. OHARA Zemax catalog 2017-11-30 (obtained from http://www.ohara-inc.co.jp)See also OHARA glass data sheets
Conditions: {"temperature": 298}
Properties: {"thermal_dispersion": [{"type": "formula A", "coefficients": "-2.38e-06 1.45e-08 -4.39e-13 6.92e-07 1.32e-09 0.344"}], "nd": 1.846659, "Vd": 23.780116, "glass_code": 847238, "glass_status": "special", "density": [{"value": 3580}], "thermal_expansion": [{"temperature_range": "243 343", "value": 8.9e-06}, {"temperature_range": "293 573", "value": 1.02e-05}], "dPgF": 0.0181, "resistance": {"climatic": 1.0, "acid": 1.0, "phosphate": 1.0}}
Dispersion formula 3, range 0.3 2.4 um, coefficients 3.2534707 -0.014523589 2 0.046505136 -2 0.0036159629 -4 -0.00024194408 -6 3.5879606e-05 -8
wavelength (um)	k
0.380	8.5076E-06
0.390	3.5363E-06
0.400	1.6795E-06
0.420	5.8273E-07
0.440	3.0721E-07
0.460	2.1483E-07
0.480	1.5195E-07
0.500	1.1709E-07
0.550	5.7271E-08
0.600	4.7987E-08
0.650	5.7213E-08
0.700	4.4743E-08
