Material: perovskite / CH3NH3PbBr3 / McCleese
Optical constants. C. L. McCleese, M. C. Brennan, N. Episcopo, L. Sun, N. Hong, C. V. Ramana, T. A. Grusenmeyer, P. R. Stevenson. CH3NH3PbBr3 for optimized perovskite solar cell active layer absorptance. Adv. Photonics Res. 2400019 (2024) (Numerical data kindly provided by Michael Brennan)
Comments: Crystal orientation: ; Solution-grown single crystal; Room temperature.
wavelength (um)	n	k
0.200	1.50375	0.96092
0.206	1.64823	0.83177
0.212	1.66647	0.73750
0.218	1.66161	0.69992
0.224	1.66019	0.67673
0.230	1.63941	0.65863
0.236	1.59891	0.66352
0.242	1.55484	0.70246
0.248	1.52636	0.77562
0.254	1.53360	0.87212
0.260	1.58472	0.96745
0.266	1.66791	1.04282
0.272	1.76943	1.09133
0.278	1.87832	1.11201
0.284	1.98614	1.10653
0.290	2.08564	1.07822
0.296	2.17202	1.03265
0.302	2.24375	0.97453
0.308	2.29931	0.90715
0.314	2.33548	0.83522
0.320	2.35244	0.76606
0.326	2.35379	0.70558
0.332	2.34463	0.65806
0.338	2.33269	0.62523
0.344	2.32493	0.60325
0.350	2.32318	0.58707
0.356	2.32727	0.57278
0.362	2.33596	0.55747
0.368	2.34701	0.53930
0.374	2.35810	0.51818
0.380	2.36807	0.49461
0.386	2.37610	0.46899
0.392	2.38135	0.44167
0.398	2.38236	0.41305
0.404	2.37420	0.38923
0.410	2.37471	0.36871
0.416	2.36948	0.34748
0.422	2.36320	0.32780
0.428	2.35626	0.31102
0.434	2.34884	0.29568
0.440	2.34166	0.28183
0.446	2.33427	0.26971
0.452	2.32691	0.25921
0.458	2.31971	0.25001
0.464	2.31343	0.24242
0.470	2.30715	0.23561
0.476	2.30175	0.23049
0.482	2.29679	0.22642
0.488	2.29299	0.22366
0.494	2.28876	0.22230
0.500	2.28579	0.22410
0.506	2.28360	0.23003
0.512	2.28498	0.24489
0.518	2.29967	0.27521
0.524	2.37026	0.30480
0.530	2.49408	0.24391
0.536	2.49912	0.10619
0.542	2.42790	0.03465
0.548	2.37582	0.01304
0.554	2.33806	0.00301
0.560	2.30846	3.29E-04
0.566	2.28668	4.31E-05
0.572	2.26929	1.07E-05
0.578	2.25469	3.14E-06
0.584	2.24207	1.43E-06
0.590	2.23093	1.00E-06
0.596	2.22096	1.00E-06
0.602	2.21194	1.00E-06
0.608	2.20371	1.00E-06
0.614	2.19615	1.00E-06
0.620	2.18916	1.00E-06
0.626	2.18267	1.00E-06
0.632	2.17661	1.00E-06
0.638	2.17093	1.00E-06
0.644	2.16560	1.00E-06
0.650	2.16058	1.00E-06
0.656	2.15584	1.00E-06
0.662	2.15135	1.00E-06
0.668	2.14709	1.00E-06
0.674	2.14305	1.00E-06
0.680	2.13920	1.00E-06
0.686	2.13553	1.00E-06
0.692	2.13203	1.00E-06
0.698	2.12868	1.00E-06
0.704	2.12547	1.00E-06
0.710	2.12240	1.00E-06
0.716	2.11946	1.00E-06
0.722	2.11663	1.00E-06
0.728	2.11391	1.00E-06
0.734	2.11130	1.00E-06
0.740	2.10878	1.00E-06
0.746	2.10636	1.00E-06
0.752	2.10402	1.00E-06
0.758	2.10176	1.00E-06
0.764	2.09958	1.00E-06
0.770	2.09748	1.00E-06
0.776	2.09545	1.00E-06
0.782	2.09348	1.00E-06
0.788	2.09158	1.00E-06
0.794	2.08973	1.00E-06
0.800	2.08795	1.00E-06
0.806	2.08622	1.00E-06
0.812	2.08454	1.00E-06
0.818	2.08291	1.00E-06
0.824	2.08133	1.00E-06
0.830	2.07979	1.00E-06
0.836	2.07830	1.00E-06
0.842	2.07685	1.00E-06
0.848	2.07544	1.00E-06
0.854	2.07407	1.00E-06
0.860	2.07274	1.00E-06
0.866	2.07144	1.00E-06
0.872	2.07018	1.00E-06
0.878	2.06895	1.00E-06
0.884	2.06775	1.00E-06
0.890	2.06658	1.00E-06
0.896	2.06544	1.00E-06
0.902	2.06433	1.00E-06
0.908	2.06325	1.00E-06
0.914	2.06219	1.00E-06
0.920	2.06116	1.00E-06
0.926	2.06016	1.00E-06
0.932	2.05917	1.00E-06
0.938	2.05821	1.00E-06
0.944	2.05728	1.00E-06
0.950	2.05636	1.00E-06
0.956	2.05546	1.00E-06
0.962	2.05459	1.00E-06
0.968	2.05373	1.00E-06
0.974	2.05289	1.00E-06
0.980	2.05207	1.00E-06
0.986	2.05127	1.00E-06
0.992	2.05049	1.00E-06
0.998	2.04972	1.00E-06
1.004	2.04896	1.00E-06
1.010	2.04823	1.00E-06
1.016	2.04751	1.00E-06
1.022	2.04680	1.00E-06
1.028	2.04610	1.00E-06
1.034	2.04543	1.00E-06
1.040	2.04476	1.00E-06
1.046	2.04411	1.00E-06
1.052	2.04347	1.14E-06
1.058	2.04284	2.00E-06
1.064	2.04222	2.00E-06
1.070	2.04162	2.00E-06
1.076	2.04103	2.00E-06
1.082	2.04044	2.00E-06
1.088	2.03987	2.00E-06
1.094	2.03931	2.00E-06
1.100	2.03876	2.00E-06
1.106	2.03822	2.00E-06
1.112	2.03769	2.00E-06
1.118	2.03717	2.00E-06
1.124	2.03666	2.00E-06
1.130	2.03615	2.00E-06
1.136	2.03566	2.00E-06
1.142	2.03517	2.00E-06
1.148	2.03469	2.14E-06
1.154	2.03422	3.57E-06
1.160	2.03376	3.29E-06
1.166	2.03331	2.14E-06
1.172	2.03286	2.00E-06
1.178	2.03242	2.00E-06
1.184	2.03198	2.00E-06
1.190	2.03156	2.00E-06
1.196	2.03114	1.43E-06
1.202	2.03073	1.00E-06
1.208	2.03032	1.00E-06
1.214	2.02992	1.00E-06
1.220	2.02953	1.00E-06
1.226	2.02914	1.57E-06
1.232	2.02876	2.00E-06
1.238	2.02838	2.00E-06
1.244	2.02801	2.00E-06
1.250	2.02764	2.00E-06
1.256	2.02728	2.71E-06
1.262	2.02693	3.00E-06
1.268	2.02658	3.86E-06
1.274	2.02623	4.29E-06
1.280	2.02589	5.00E-06
1.286	2.02556	5.00E-06
1.292	2.02523	5.00E-06
1.298	2.02491	5.00E-06
1.304	2.02459	5.00E-06
1.310	2.02427	4.43E-06
1.316	2.02396	4.00E-06
1.322	2.02365	4.00E-06
1.328	2.02334	4.29E-06
1.334	2.02304	5.57E-06
1.340	2.02275	5.14E-06
1.346	2.02246	5.86E-06
1.352	2.02217	5.14E-06
1.358	2.02188	6.29E-06
1.364	2.02160	7.00E-06
1.370	2.02133	5.86E-06
1.376	2.02105	5.00E-06
1.382	2.02078	4.29E-06
1.388	2.02051	4.00E-06
1.394	2.02025	4.86E-06
1.400	2.01999	5.00E-06
1.406	2.01973	4.14E-06
1.412	2.01947	4.00E-06
1.418	2.01922	4.00E-06
1.424	2.01897	3.29E-06
1.430	2.01873	3.00E-06
1.436	2.01848	3.00E-06
1.442	2.01824	3.00E-06
1.448	2.01801	3.00E-06
1.454	2.01777	3.00E-06
1.460	2.01754	3.00E-06
1.466	2.01731	3.00E-06
1.472	2.01708	3.00E-06
1.478	2.01685	3.00E-06
1.484	2.01663	3.00E-06
1.490	2.01641	3.00E-06
1.496	2.01619	3.00E-06
1.502	2.01597	3.43E-06
1.508	2.01576	4.00E-06
1.514	2.01554	4.57E-06
1.520	2.01533	5.43E-06
1.526	2.01512	6.57E-06
1.532	2.01492	8.29E-06
1.538	2.01471	1.04E-05
1.544	2.01451	1.34E-05
1.550	2.01430	1.76E-05
1.556	2.01410	2.36E-05
1.562	2.01391	3.19E-05
1.568	2.01371	4.21E-05
1.574	2.01352	5.33E-05
1.580	2.01334	6.31E-05
1.586	2.01317	7.04E-05
1.592	2.01299	7.29E-05
1.598	2.01282	6.99E-05
1.604	2.01265	6.34E-05
1.610	2.01247	5.61E-05
1.616	2.01229	5.00E-05
1.622	2.01212	4.44E-05
1.628	2.01194	4.03E-05
1.634	2.01176	3.70E-05
1.640	2.01159	3.60E-05
1.646	2.01142	3.53E-05
1.652	2.01125	3.21E-05
1.658	2.01107	3.26E-05
1.664	2.01091	3.37E-05
1.670	2.01074	2.19E-05
1.676	2.01057	1.91E-05
1.682	2.01040	1.90E-05
1.688	2.01024	2.17E-05
1.694	2.01007	2.57E-05
1.700	2.00992	2.57E-05
1.706	2.00976	2.10E-05
1.712	2.00959	2.21E-05
1.718	2.00944	2.10E-05
1.724	2.00928	1.69E-05
1.730	2.00912	1.47E-05
1.736	2.00897	1.40E-05
1.742	2.00881	1.46E-05
1.748	2.00865	1.79E-05
1.754	2.00850	1.77E-05
1.760	2.00835	1.63E-05
1.766	2.00820	1.47E-05
1.772	2.00805	1.40E-05
1.778	2.00790	1.40E-05
1.784	2.00775	1.40E-05
1.790	2.00760	1.41E-05
1.796	2.00745	1.50E-05
1.802	2.00731	1.56E-05
1.808	2.00716	1.60E-05
1.814	2.00702	1.51E-05
1.820	2.00687	1.39E-05
1.826	2.00673	1.33E-05
1.832	2.00658	1.46E-05
1.838	2.00644	1.47E-05
1.844	2.00629	1.40E-05
1.850	2.00615	1.46E-05
1.856	2.00601	1.59E-05
1.862	2.00587	1.64E-05
1.868	2.00573	1.63E-05
1.874	2.00559	1.60E-05
1.880	2.00545	1.59E-05
1.886	2.00530	1.50E-05
1.892	2.00516	1.41E-05
1.898	2.00502	1.40E-05
1.904	2.00488	1.39E-05
1.910	2.00474	1.31E-05
1.916	2.00460	1.44E-05
1.922	2.00446	1.63E-05
1.928	2.00431	1.70E-05
1.934	2.00417	1.70E-05
1.940	2.00403	1.79E-05
1.946	2.00388	2.00E-05
1.952	2.00374	2.41E-05
1.958	2.00360	2.79E-05
1.964	2.00345	3.07E-05
1.970	2.00331	3.49E-05
1.976	2.00317	3.96E-05
1.982	2.00302	4.37E-05
1.988	2.00287	4.73E-05
1.994	2.00273	4.99E-05
2.000	2.00258	5.30E-05
2.006	2.00242	5.77E-05
2.012	2.00227	6.39E-05
2.018	2.00211	7.04E-05
2.024	2.00194	7.93E-05
2.030	2.00178	9.26E-05
2.036	2.00161	1.10E-04
2.042	2.00143	1.34E-04
2.048	2.00125	1.67E-04
2.054	2.00107	2.12E-04
2.060	2.00090	2.65E-04
2.066	2.00072	3.25E-04
2.072	2.00056	3.91E-04
2.078	2.00039	4.64E-04
2.084	2.00024	5.42E-04
2.090	2.00009	6.25E-04
2.096	1.99994	7.11E-04
2.102	1.99980	8.02E-04
2.108	1.99967	8.95E-04
2.114	1.99955	9.91E-04
2.120	1.99943	0.00109
2.126	1.99932	0.00119
2.132	1.99921	0.00129
2.138	1.99911	0.00139
2.144	1.99902	0.00149
2.150	1.99894	0.00159
2.156	1.99886	0.00168
2.162	1.99879	0.00178
2.168	1.99872	0.00188
2.174	1.99866	0.00197
2.180	1.99861	0.00206
2.186	1.99856	0.00214
2.192	1.99852	0.00223
2.198	1.99848	0.00231
2.204	1.99845	0.00238
2.210	1.99842	0.00245
2.216	1.99840	0.00252
2.222	1.99838	0.00258
2.228	1.99837	0.00264
2.234	1.99836	0.00269
2.240	1.99835	0.00273
2.246	1.99834	0.00277
2.252	1.99834	0.00280
2.258	1.99834	0.00283
2.264	1.99835	0.00285
2.270	1.99835	0.00286
2.276	1.99836	0.00286
2.282	1.99836	0.00286
2.288	1.99837	0.00285
2.294	1.99838	0.00283
2.300	1.99838	0.00280
2.306	1.99839	0.00276
2.312	1.99839	0.00272
2.318	1.99839	0.00267
2.324	1.99839	0.00261
2.330	1.99839	0.00254
2.336	1.99838	0.00246
2.342	1.99836	0.00237
2.348	1.99834	0.00227
2.354	1.99832	0.00217
2.360	1.99828	0.00205
2.366	1.99824	0.00193
2.372	1.99818	0.00179
2.378	1.99812	0.00165
2.384	1.99804	0.00149
2.390	1.99795	0.00133
2.396	1.99783	0.00115
2.402	1.99769	9.68E-04
2.408	1.99752	7.73E-04
2.414	1.99728	5.78E-04
2.420	1.99697	4.45E-04
2.426	1.99668	4.12E-04
2.432	1.99646	4.00E-04
2.438	1.99626	3.63E-04
2.444	1.99605	3.24E-04
2.450	1.99583	3.00E-04
2.456	1.99563	2.89E-04
2.462	1.99544	2.70E-04
2.468	1.99525	2.40E-04
2.474	1.99504	2.14E-04
2.480	1.99483	1.95E-04
2.486	1.99462	1.77E-04
2.492	1.99440	1.65E-04
2.498	1.99418	1.62E-04
