Material: refractiveindexinfo-database / main / Zahedpour
Optical constants. S. Zahedpour, J. K. Wahlstrand, H. M. Milchberg. Measurement of the nonlinear refractive index of air constituents at mid-infrared wavelengths. Opt. Lett. 40, 5794-5795 (2015)
Comments: 40 fs. Single-shot supercontinuum spectral interferometry. Room temperature, atmospheric pressure.For long pulses, the effective nonlinearity coefficient can be calculated by adding the rotational contribution to the reported instantaneous n2: n2,eff = n2 + n2,rot, where n2,rot = 24Ã—10-24 m2/W.
Conditions: {"n2_method": "SI", "pulse_duration": "40e-15"}
wavelength (um)	n	2
0.40	10.1e-24
0.80	7.9e-24
1.25	7.7e-24
1.65	8.0e-24
2.20	7.2e-24
2.40	7.6e-24
