Material: main / WSe2 / Ushkov-e
Optical constants. A. Ushkov, D. Dyubo, N. Belozerova, I. Kazantsev, D. Yakubovsky, A. Syuy, G. Tikhonowski, D. Tselikov, I. Martynov, G. Ermolaev, D. Grudinin, A. Melentev, A. Popov, A. Chernov, A. Bolshakov, A. Vyshnevyy, A. Arsenin, A. Kabashin, G. Tselikov, V. Volkov. Tungsten diselenide nanoparticles produced via femtosecond ablation for SERS and theranostics applications. Nanomaterials, 15(1), 4 (2025) (Numerical data kindly provided by Georgy Ermolaev)
Comments: WSe2 nanoparticles with diameters from 5 to 150 nm synthesized by femtosecond laser ablation.
Conditions: {"direction": "e"}
wavelength (um)	n	k
0.360	3.09149	0
0.364	3.08570	0
0.368	3.07991	0
0.372	3.07414	0
0.376	3.06840	0
0.380	3.06270	0
0.384	3.05703	0
0.388	3.05141	0
0.392	3.04584	0
0.396	3.04033	0
0.400	3.03487	0
0.404	3.02947	0
0.408	3.02414	0
0.412	3.01887	0
0.416	3.01366	0
0.420	3.00853	0
0.424	3.00347	0
0.428	2.99847	0
0.432	2.99355	0
0.436	2.98870	0
0.440	2.98392	0
0.444	2.97922	0
0.448	2.97458	0
0.452	2.97002	0
0.456	2.96553	0
0.460	2.96111	0
0.464	2.95676	0
0.468	2.95248	0
0.472	2.94827	0
0.476	2.94413	0
0.480	2.94006	0
0.484	2.93605	0
0.488	2.93211	0
0.492	2.92824	0
0.496	2.92443	0
0.500	2.92069	0
0.504	2.91700	0
0.508	2.91338	0
0.512	2.90982	0
0.516	2.90632	0
0.520	2.90288	0
0.524	2.89950	0
0.528	2.89617	0
0.532	2.89290	0
0.536	2.88969	0
0.540	2.88653	0
0.544	2.88342	0
0.548	2.88037	0
0.552	2.87736	0
0.556	2.87441	0
0.560	2.87150	0
0.564	2.86865	0
0.568	2.86584	0
0.572	2.86308	0
0.576	2.86036	0
0.580	2.85769	0
0.584	2.85507	0
0.588	2.85248	0
0.592	2.84994	0
0.596	2.84744	0
0.600	2.84498	0
0.604	2.84257	0
0.608	2.84019	0
0.612	2.83785	0
0.616	2.83554	0
0.620	2.83328	0
0.624	2.83105	0
0.628	2.82886	0
0.632	2.82670	0
0.636	2.82457	0
0.640	2.82248	0
0.644	2.82042	0
0.648	2.81840	0
0.652	2.81641	0
0.656	2.81444	0
0.660	2.81251	0
0.664	2.81061	0
0.668	2.80874	0
0.672	2.80689	0
0.676	2.80508	0
0.680	2.80329	0
0.684	2.80153	0
0.688	2.79980	0
0.692	2.79809	0
0.696	2.79641	0
0.700	2.79475	0
0.704	2.79312	0
0.708	2.79151	0
0.712	2.78993	0
0.716	2.78837	0
0.720	2.78683	0
0.724	2.78532	0
0.728	2.78382	0
0.732	2.78235	0
0.736	2.78090	0
0.740	2.77948	0
0.744	2.77807	0
0.748	2.77668	0
0.752	2.77531	0
0.756	2.77396	0
0.760	2.77263	0
0.764	2.77132	0
0.768	2.77003	0
0.772	2.76876	0
0.776	2.76750	0
0.780	2.76626	0
0.784	2.76504	0
0.788	2.76384	0
0.792	2.76265	0
0.796	2.76148	0
0.800	2.76032	0
0.804	2.75918	0
0.808	2.75806	0
0.812	2.75695	0
0.816	2.75585	0
0.820	2.75477	0
0.824	2.75370	0
0.828	2.75265	0
0.832	2.75162	0
0.836	2.75059	0
0.840	2.74958	0
0.844	2.74858	0
0.848	2.74760	0
0.852	2.74663	0
0.856	2.74567	0
0.860	2.74472	0
0.864	2.74379	0
0.868	2.74286	0
0.872	2.74195	0
0.876	2.74105	0
0.880	2.74017	0
0.884	2.73929	0
0.888	2.73842	0
0.892	2.73757	0
0.896	2.73672	0
0.900	2.73589	0
0.904	2.73507	0
0.908	2.73425	0
0.912	2.73345	0
0.916	2.73266	0
0.920	2.73187	0
0.924	2.73110	0
0.928	2.73033	0
0.932	2.72958	0
0.936	2.72883	0
0.940	2.72809	0
0.944	2.72736	0
0.948	2.72664	0
0.952	2.72593	0
0.956	2.72523	0
0.960	2.72453	0
0.964	2.72384	0
0.968	2.72316	0
0.972	2.72249	0
0.976	2.72183	0
0.980	2.72117	0
0.984	2.72053	0
0.988	2.71989	0
0.992	2.71925	0
0.996	2.71863	0
1.000	2.71801	0
1.004	2.71739	0
1.008	2.71679	0
1.012	2.71619	0
1.016	2.71560	0
1.020	2.71501	0
1.024	2.71443	0
1.028	2.71386	0
1.032	2.71330	0
1.036	2.71274	0
1.040	2.71218	0
1.044	2.71163	0
1.048	2.71109	0
1.052	2.71056	0
1.056	2.71003	0
1.060	2.70950	0
1.064	2.70898	0
1.068	2.70847	0
1.072	2.70796	0
1.076	2.70746	0
1.080	2.70696	0
1.084	2.70647	0
1.088	2.70598	0
1.092	2.70550	0
1.096	2.70503	0
1.100	2.70456	0
1.104	2.70409	0
1.108	2.70363	0
1.112	2.70317	0
1.116	2.70272	0
1.120	2.70227	0
1.124	2.70183	0
1.128	2.70139	0
1.132	2.70095	0
1.136	2.70052	0
1.140	2.70010	0
1.144	2.69968	0
1.148	2.69926	0
1.152	2.69885	0
1.156	2.69844	0
1.160	2.69803	0
1.164	2.69763	0
1.168	2.69724	0
1.172	2.69684	0
1.176	2.69646	0
1.180	2.69607	0
1.184	2.69569	0
1.188	2.69531	0
1.192	2.69494	0
1.196	2.69457	0
1.200	2.69420	0
1.204	2.69384	0
1.208	2.69348	0
1.212	2.69312	0
1.216	2.69277	0
1.220	2.69242	0
1.224	2.69207	0
1.228	2.69173	0
1.232	2.69139	0
1.236	2.69105	0
1.240	2.69072	0
1.244	2.69039	0
1.248	2.69006	0
1.252	2.68974	0
1.256	2.68942	0
1.260	2.68910	0
1.264	2.68878	0
1.268	2.68847	0
1.272	2.68816	0
1.276	2.68785	0
1.280	2.68755	0
1.284	2.68725	0
1.288	2.68695	0
1.292	2.68665	0
1.296	2.68636	0
1.300	2.68607	0
1.304	2.68578	0
1.308	2.68549	0
1.312	2.68521	0
1.316	2.68493	0
1.320	2.68465	0
1.324	2.68438	0
1.328	2.68410	0
1.332	2.68383	0
1.336	2.68357	0
1.340	2.68330	0
1.344	2.68304	0
1.348	2.68277	0
1.352	2.68251	0
1.356	2.68226	0
1.360	2.68200	0
1.364	2.68175	0
1.368	2.68150	0
1.372	2.68125	0
1.376	2.68100	0
1.380	2.68076	0
1.384	2.68052	0
1.388	2.68028	0
1.392	2.68004	0
1.396	2.67980	0
1.400	2.67957	0
1.404	2.67934	0
1.408	2.67911	0
1.412	2.67888	0
1.416	2.67865	0
1.420	2.67843	0
1.424	2.67820	0
1.428	2.67798	0
1.432	2.67776	0
1.436	2.67755	0
1.440	2.67733	0
1.444	2.67712	0
1.448	2.67691	0
1.452	2.67670	0
1.456	2.67649	0
1.460	2.67628	0
1.464	2.67607	0
1.468	2.67587	0
1.472	2.67567	0
1.476	2.67547	0
1.480	2.67527	0
1.484	2.67507	0
1.488	2.67488	0
1.492	2.67468	0
1.496	2.67449	0
1.500	2.67430	0
1.504	2.67411	0
1.508	2.67392	0
1.512	2.67373	0
1.516	2.67355	0
1.520	2.67336	0
1.524	2.67318	0
1.528	2.67300	0
1.532	2.67282	0
1.536	2.67264	0
1.540	2.67246	0
1.544	2.67229	0
1.548	2.67211	0
1.552	2.67194	0
1.556	2.67177	0
1.560	2.67160	0
1.564	2.67143	0
1.568	2.67126	0
1.572	2.67109	0
1.576	2.67093	0
1.580	2.67077	0
1.584	2.67060	0
1.588	2.67044	0
1.592	2.67028	0
1.596	2.67012	0
1.600	2.66996	0
1.604	2.66981	0
1.608	2.66965	0
1.612	2.66949	0
1.616	2.66934	0
1.620	2.66919	0
1.624	2.66904	0
1.628	2.66889	0
1.632	2.66874	0
1.636	2.66859	0
1.640	2.66844	0
1.644	2.66830	0
1.648	2.66815	0
1.652	2.66801	0
1.656	2.66786	0
1.660	2.66772	0
1.664	2.66758	0
1.668	2.66744	0
1.672	2.66730	0
1.676	2.66716	0
1.680	2.66703	0
1.684	2.66689	0
1.688	2.66676	0
1.692	2.66662	0
1.696	2.66649	0
1.700	2.66636	0
