Material: main / WSe2 / Zotev-e
Optical constants. P. G. Zotev, Y. Wang, D. Andres-Penares, T. Severs-Millard, S. Randerson, X. Hu, L. Sortino, C. Louca, M. Brotons-Gisbert, T. Huq, S. Vezzoli, R. Sapienza, T. F. Krauss, B. D. Gerardot, A. I. Tartakovskii. Van der Waals materials for applications in nanophotonics. Laser and Photonics Rev. 17, 2200957 (2023) (Numerical data kindly provided by Panaiot Zotev)
Comments: Multilayer crystals. Out-of-plane (extraordinary ray, e). Room temperature.
wavelength (um)	n	k
0.360	2.98687	0
0.363	2.98622	0
0.366	2.98559	0
0.370	2.98498	0
0.373	2.98438	0
0.376	2.98380	0
0.379	2.98323	0
0.382	2.98267	0
0.386	2.98213	0
0.389	2.98161	0
0.392	2.98109	0
0.395	2.98059	0
0.398	2.98010	0
0.402	2.97963	0
0.405	2.97916	0
0.408	2.97870	0
0.411	2.97826	0
0.414	2.97782	0
0.418	2.97740	0
0.421	2.97698	0
0.424	2.97658	0
0.427	2.97618	0
0.430	2.97579	0
0.434	2.97541	0
0.437	2.97504	0
0.440	2.97468	0
0.443	2.97432	0
0.446	2.97398	0
0.450	2.97364	0
0.453	2.97330	0
0.456	2.97298	0
0.459	2.97266	0
0.462	2.97235	0
0.466	2.97204	0
0.469	2.97174	0
0.472	2.97145	0
0.475	2.97116	0
0.478	2.97088	0
0.482	2.97060	0
0.485	2.97033	0
0.488	2.97006	0
0.491	2.96980	0
0.494	2.96955	0
0.498	2.96930	0
0.501	2.96905	0
0.504	2.96881	0
0.507	2.96857	0
0.510	2.96834	0
0.514	2.96811	0
0.517	2.96789	0
0.520	2.96767	0
0.523	2.96745	0
0.526	2.96724	0
0.530	2.96704	0
0.532	2.96688	0
0.534	2.96673	0
0.538	2.96653	0
0.541	2.96634	0
0.544	2.96615	0
0.547	2.96596	0
0.550	2.96577	0
0.554	2.96559	0
0.557	2.96541	0
0.560	2.96524	0
0.563	2.96506	0
0.566	2.96489	0
0.570	2.96473	0
0.573	2.96456	0
0.576	2.96440	0
0.579	2.96424	0
0.582	2.96409	0
0.586	2.96393	0
0.589	2.96378	0
0.592	2.96363	0
0.595	2.96349	0
0.598	2.96334	0
0.602	2.96320	0
0.605	2.96306	0
0.608	2.96293	0
0.611	2.96279	0
0.614	2.96266	0
0.618	2.96253	0
0.621	2.96240	0
0.624	2.96227	0
0.627	2.96215	0
0.630	2.96202	0
0.634	2.96190	0
0.637	2.96178	0
0.640	2.96167	0
0.643	2.96155	0
0.646	2.96144	0
0.650	2.96132	0
0.653	2.96121	0
0.656	2.96110	0
0.659	2.96100	0
0.662	2.96089	0
0.666	2.96078	0
0.669	2.96068	0
0.672	2.96058	0
0.675	2.96048	0
0.678	2.96038	0
0.682	2.96028	0
0.685	2.96019	0
0.688	2.96009	0
0.691	2.96000	0
0.694	2.95991	0
0.698	2.95982	0
0.701	2.95973	0
0.704	2.95964	0
0.707	2.95955	0
0.710	2.95947	0
0.714	2.95938	0
0.717	2.95930	0
0.720	2.95922	0
0.723	2.95914	0
0.726	2.95906	0
0.730	2.95898	0
0.733	2.95890	0
0.736	2.95882	0
0.739	2.95874	0
0.742	2.95867	0
0.746	2.95859	0
0.749	2.95852	0
0.752	2.95845	0
0.755	2.95838	0
0.758	2.95831	0
0.762	2.95824	0
0.765	2.95817	0
0.768	2.95810	0
0.771	2.95803	0
0.774	2.95797	0
0.778	2.95790	0
0.781	2.95784	0
0.784	2.95777	0
0.787	2.95771	0
0.790	2.95765	0
0.794	2.95759	0
0.797	2.95753	0
0.800	2.95747	0
0.803	2.95741	0
0.806	2.95735	0
0.810	2.95729	0
0.813	2.95723	0
0.816	2.95718	0
0.819	2.95712	0
0.822	2.95706	0
0.826	2.95701	0
0.829	2.95696	0
0.832	2.95690	0
0.835	2.95685	0
0.838	2.95680	0
0.842	2.95675	0
0.845	2.95669	0
0.848	2.95664	0
0.851	2.95659	0
0.854	2.95655	0
0.858	2.95650	0
0.861	2.95645	0
0.864	2.95640	0
0.867	2.95635	0
0.870	2.95631	0
0.874	2.95626	0
0.877	2.95622	0
0.880	2.95617	0
0.883	2.95613	0
0.886	2.95608	0
0.890	2.95604	0
0.893	2.95599	0
0.896	2.95595	0
0.899	2.95591	0
0.902	2.95587	0
0.906	2.95583	0
0.909	2.95579	0
0.912	2.95574	0
0.915	2.95570	0
0.918	2.95566	0
0.922	2.95563	0
0.925	2.95559	0
0.928	2.95555	0
0.931	2.95551	0
0.934	2.95547	0
0.938	2.95544	0
0.941	2.95540	0
0.944	2.95536	0
0.947	2.95533	0
0.950	2.95529	0
0.954	2.95525	0
0.957	2.95522	0
0.960	2.95518	0
0.963	2.95515	0
0.966	2.95512	0
0.970	2.95508	0
0.973	2.95505	0
0.976	2.95502	0
0.979	2.95498	0
0.982	2.95495	0
0.986	2.95492	0
0.989	2.95489	0
0.992	2.95486	0
0.995	2.95482	0
0.998	2.95479	0
