Material: main / WSe2 / Zotev-o
Optical constants. P. G. Zotev, Y. Wang, D. Andres-Penares, T. Severs-Millard, S. Randerson, X. Hu, L. Sortino, C. Louca, M. Brotons-Gisbert, T. Huq, S. Vezzoli, R. Sapienza, T. F. Krauss, B. D. Gerardot, A. I. Tartakovskii. Van der Waals materials for applications in nanophotonics. Laser and Photonics Rev. 17, 2200957 (2023) (Numerical data kindly provided by Panaiot Zotev)
Comments: Multilayer crystals. In-plane (ordinary ray, o). Room temperature.
wavelength (um)	n	k
0.360	3.394	2.390
0.363	3.435	2.367
0.366	3.474	2.344
0.370	3.510	2.320
0.373	3.543	2.296
0.376	3.574	2.272
0.379	3.602	2.249
0.382	3.628	2.226
0.386	3.652	2.205
0.389	3.674	2.185
0.392	3.694	2.166
0.395	3.714	2.149
0.398	3.732	2.133
0.402	3.750	2.119
0.405	3.767	2.106
0.408	3.784	2.095
0.411	3.800	2.085
0.414	3.818	2.077
0.418	3.835	2.070
0.421	3.854	2.064
0.424	3.874	2.059
0.427	3.894	2.055
0.430	3.916	2.052
0.434	3.939	2.048
0.437	3.964	2.045
0.440	3.990	2.041
0.443	4.017	2.037
0.446	4.046	2.032
0.450	4.076	2.025
0.453	4.107	2.018
0.456	4.139	2.009
0.459	4.172	1.998
0.462	4.205	1.985
0.466	4.238	1.970
0.469	4.271	1.954
0.472	4.303	1.935
0.475	4.334	1.914
0.478	4.365	1.892
0.482	4.394	1.867
0.485	4.422	1.841
0.488	4.448	1.814
0.491	4.472	1.786
0.494	4.494	1.756
0.498	4.514	1.726
0.501	4.532	1.696
0.504	4.548	1.665
0.507	4.561	1.635
0.510	4.573	1.605
0.514	4.582	1.576
0.517	4.589	1.547
0.520	4.594	1.520
0.523	4.598	1.494
0.526	4.600	1.470
0.530	4.601	1.448
0.532	4.600	1.433
0.534	4.600	1.419
0.538	4.599	1.403
0.541	4.597	1.390
0.544	4.596	1.380
0.547	4.595	1.374
0.550	4.597	1.371
0.554	4.602	1.371
0.557	4.610	1.374
0.560	4.624	1.380
0.563	4.644	1.387
0.566	4.673	1.393
0.570	4.710	1.396
0.573	4.755	1.392
0.576	4.806	1.378
0.579	4.859	1.352
0.582	4.911	1.312
0.586	4.956	1.260
0.589	4.991	1.199
0.592	5.015	1.132
0.595	5.026	1.065
0.598	5.026	1.000
0.602	5.019	0.939
0.605	5.005	0.883
0.608	4.987	0.833
0.611	4.965	0.788
0.614	4.942	0.748
0.618	4.918	0.713
0.621	4.893	0.682
0.624	4.869	0.654
0.627	4.845	0.628
0.630	4.822	0.606
0.634	4.798	0.585
0.637	4.776	0.567
0.640	4.754	0.550
0.643	4.732	0.534
0.646	4.711	0.520
0.650	4.691	0.507
0.653	4.671	0.496
0.656	4.651	0.485
0.659	4.631	0.475
0.662	4.612	0.466
0.666	4.593	0.457
0.669	4.574	0.450
0.672	4.555	0.443
0.675	4.536	0.438
0.678	4.517	0.433
0.682	4.498	0.428
0.685	4.479	0.425
0.688	4.459	0.423
0.691	4.439	0.422
0.694	4.419	0.422
0.698	4.399	0.423
0.701	4.377	0.426
0.704	4.356	0.430
0.707	4.333	0.436
0.710	4.310	0.445
0.714	4.286	0.457
0.717	4.261	0.471
0.720	4.236	0.490
0.723	4.210	0.514
0.726	4.185	0.544
0.730	4.160	0.582
0.733	4.138	0.630
0.736	4.121	0.689
0.739	4.113	0.761
0.742	4.122	0.847
0.746	4.156	0.945
0.749	4.224	1.046
0.752	4.333	1.135
0.755	4.483	1.188
0.758	4.653	1.187
0.762	4.812	1.123
0.765	4.932	1.014
0.768	5.006	0.884
0.771	5.036	0.757
0.774	5.034	0.645
0.778	5.015	0.552
0.781	4.984	0.477
0.784	4.951	0.417
0.787	4.916	0.369
0.790	4.881	0.331
0.794	4.849	0.300
0.797	4.819	0.274
0.800	4.790	0.253
0.803	4.764	0.236
0.806	4.740	0.220
0.810	4.717	0.208
0.813	4.696	0.196
0.816	4.677	0.187
0.819	4.658	0.178
0.822	4.641	0.170
0.826	4.625	0.163
0.829	4.610	0.157
0.832	4.596	0.151
0.835	4.582	0.146
0.838	4.570	0.141
0.842	4.557	0.137
0.845	4.546	0.133
0.848	4.535	0.129
0.851	4.524	0.125
0.854	4.514	0.122
0.858	4.504	0.119
0.861	4.495	0.116
0.864	4.486	0.113
0.867	4.477	0.110
0.870	4.469	0.107
0.874	4.461	0.105
0.877	4.453	0.103
0.880	4.446	0.100
0.883	4.438	0.098
0.886	4.431	0.096
0.890	4.424	0.094
0.893	4.417	0.092
0.896	4.411	0.090
0.899	4.405	0.088
0.902	4.398	0.086
0.906	4.392	0.085
0.909	4.386	0.083
0.912	4.381	0.081
0.915	4.375	0.080
0.918	4.370	0.078
0.922	4.364	0.077
0.925	4.359	0.075
0.928	4.354	0.074
0.931	4.349	0.072
0.934	4.344	0.071
0.938	4.339	0.070
0.941	4.334	0.069
0.944	4.330	0.067
0.947	4.325	0.066
0.950	4.321	0.065
0.954	4.316	0.064
0.957	4.312	0.063
0.960	4.308	0.062
0.963	4.304	0.061
0.966	4.300	0.060
0.970	4.296	0.059
0.973	4.292	0.058
0.976	4.288	0.057
0.979	4.284	0.056
0.982	4.281	0.055
0.986	4.277	0.054
0.989	4.273	0.053
0.992	4.270	0.052
0.995	4.266	0.052
0.998	4.263	0.051
