Material: alloys / stainless steel / Karlsson-ferritic
Optical constants. Bj√∂rn Karlsson, Carl G. Ribbing. Optical constants and spectral selectivity of stainless steel and its oxides. J. Appl. Phys. 53, 6340-6346 (1982) (Data extracted from a figure)
Comments: Ferritic stainless steel Avesta 393 M (similar to S340). Content by weight: Cr 13.5; Ni 0.16; C 0.048; Mn 0.27.
wavelength (um)	n	k
0.20	0.8807	1.2704
0.22	0.9648	1.3770
0.24	1.0099	1.4861
0.26	1.0068	1.6010
0.28	0.9963	1.7276
0.30	1.0078	1.8706
0.32	1.0566	2.0208
0.34	1.1172	2.1638
0.36	1.1694	2.2971
0.38	1.2344	2.4214
0.40	1.3075	2.5340
0.42	1.3766	2.6334
0.44	1.4517	2.7256
0.46	1.5372	2.8162
0.48	1.6307	2.9055
0.50	1.7244	2.9919
0.52	1.8059	3.0721
0.54	1.8730	3.1404
0.56	1.9355	3.2004
0.58	1.9969	3.2617
0.60	2.0565	3.3248
0.62	2.1139	3.3881
0.64	2.1685	3.4507
0.66	2.2199	3.5118
0.68	2.2679	3.5707
0.70	2.3124	3.6273
0.72	2.3536	3.6821
0.74	2.3917	3.7354
0.76	2.4268	3.7877
0.78	2.4597	3.8395
0.80	2.4912	3.8909
0.82	2.5218	3.9422
0.84	2.5522	3.9933
0.86	2.5831	4.0446
0.88	2.6154	4.0960
0.90	2.6488	4.1480
0.92	2.6830	4.2007
0.94	2.7170	4.2544
0.96	2.7503	4.3095
0.98	2.7828	4.3663
1.00	2.8146	4.4243
1.02	2.8456	4.4832
1.04	2.8759	4.5422
1.06	2.9057	4.6010
1.08	2.9354	4.6591
1.10	2.9657	4.7165
1.12	2.9971	4.7733
1.14	3.0301	4.8298
1.16	3.0642	4.8860
1.18	3.0988	4.9419
1.20	3.1333	4.9976
1.22	3.1673	5.0531
1.24	3.2011	5.1086
1.26	3.2347	5.1642
1.28	3.2682	5.2201
1.30	3.3018	5.2762
1.32	3.3356	5.3325
1.34	3.3699	5.3891
1.36	3.4050	5.4457
1.38	3.4414	5.5016
1.40	3.4788	5.5561
1.42	3.5161	5.6083
1.44	3.5528	5.6580
1.46	3.5893	5.7059
1.48	3.6260	5.7532
1.50	3.6635	5.8006
1.52	3.7018	5.8492
1.54	3.7395	5.8982
1.56	3.7749	5.9459
1.58	3.8078	5.9911
1.60	3.8398	6.0342
1.62	3.8719	6.0765
1.64	3.9054	6.1187
1.66	3.9408	6.1613
1.68	3.9766	6.2046
1.70	4.0105	6.2485
1.72	4.0405	6.2926
1.74	4.0664	6.3363
1.76	4.0888	6.3783
1.78	4.1083	6.4076
1.80	4.1334	6.4481
1.82	4.1674	6.4966
1.84	4.2025	6.5400
1.86	4.2306	6.5818
1.88	4.2532	6.6219
1.90	4.2750	6.6612
1.92	4.2986	6.7021
1.94	4.3268	6.7440
1.96	4.3601	6.7864
1.98	4.3884	6.8293
2.00	4.4143	6.8724
2.02	4.4361	6.9158
2.04	4.4570	6.9594
2.06	4.4809	7.0021
2.08	4.5087	7.0429
2.10	4.5380	7.0810
2.12	4.5665	7.1169
2.14	4.5925	7.1516
2.16	4.6156	7.1863
2.18	4.6372	7.2224
2.20	4.6599	7.2620
2.22	4.6868	7.3073
2.24	4.7141	7.3573
2.26	4.7389	7.3922
2.28	4.7612	7.4278
2.30	4.7815	7.4647
2.32	4.8011	7.5018
2.34	4.8211	7.5417
2.36	4.8458	7.5864
2.38	4.8706	7.6299
2.40	4.8919	7.6709
2.42	4.9117	7.7101
2.44	4.9300	7.7476
2.46	4.9456	7.7903
2.48	4.9631	7.8358
2.50	4.9881	7.8818
