Material: non-stoichiometric compounds / Si-O / Herguedas-SiO0.31
Optical constants. N. Herguedas and E. Carretero. Optical properties in mid-infrared range of silicon oxide thin films with different stoichiometries. Nanomaterials 13, 2749 (2023)
Comments: SiO0.31. Sputtered Si with 10 sccm O2 and 190 sccm Ar, which is equivalent to a oxygen partial pressure of 1.1 &times; 10-4 mbar and a total pressure of 1.8 &times; 10-3 mbar. Room temperature.
wavelength (um)	n	k
5.000	3.051	0.000
5.015	3.051	0.000
5.030	3.050	0.000
5.045	3.050	0.000
5.061	3.050	0.000
5.076	3.050	0.000
5.092	3.049	0.000
5.107	3.049	0.000
5.123	3.049	0.000
5.139	3.049	0.000
5.155	3.048	0.000
5.171	3.048	0.000
5.187	3.048	0.000
5.203	3.047	0.000
5.219	3.047	0.000
5.236	3.047	0.000
5.252	3.047	0.000
5.269	3.046	0.000
5.285	3.046	0.000
5.302	3.046	0.000
5.319	3.045	0.000
5.336	3.045	0.000
5.353	3.045	0.000
5.371	3.044	0.000
5.388	3.044	0.000
5.405	3.044	0.000
5.423	3.043	0.000
5.441	3.043	0.000
5.459	3.043	0.000
5.476	3.042	0.001
5.495	3.042	0.001
5.513	3.042	0.001
5.531	3.041	0.001
5.549	3.041	0.001
5.568	3.040	0.001
5.587	3.040	0.001
5.605	3.040	0.001
5.624	3.039	0.001
5.643	3.039	0.001
5.663	3.038	0.001
5.682	3.038	0.001
5.701	3.038	0.001
5.721	3.037	0.001
5.741	3.037	0.001
5.760	3.036	0.001
5.780	3.036	0.001
5.800	3.035	0.001
5.821	3.035	0.001
5.841	3.034	0.001
5.862	3.034	0.001
5.882	3.033	0.001
5.903	3.033	0.001
5.924	3.032	0.001
5.945	3.032	0.001
5.967	3.031	0.001
5.988	3.031	0.002
6.010	3.030	0.002
6.031	3.030	0.002
6.053	3.029	0.002
6.075	3.029	0.002
6.098	3.028	0.002
6.120	3.028	0.002
6.143	3.027	0.002
6.165	3.026	0.002
6.188	3.026	0.002
6.211	3.025	0.002
6.234	3.024	0.002
6.258	3.024	0.002
6.281	3.023	0.003
6.305	3.023	0.003
6.329	3.022	0.003
6.353	3.021	0.003
6.378	3.020	0.003
6.402	3.020	0.003
6.427	3.019	0.003
6.452	3.018	0.003
6.477	3.017	0.003
6.502	3.017	0.004
6.527	3.016	0.004
6.553	3.015	0.004
6.579	3.014	0.004
6.605	3.013	0.004
6.631	3.013	0.004
6.658	3.012	0.005
6.684	3.011	0.005
6.711	3.010	0.005
6.739	3.009	0.005
6.766	3.008	0.005
6.793	3.007	0.005
6.821	3.006	0.006
6.849	3.005	0.006
6.878	3.004	0.006
6.906	3.003	0.006
6.935	3.002	0.007
6.964	3.001	0.007
6.993	3.000	0.007
7.022	2.999	0.007
7.052	2.998	0.007
7.082	2.996	0.008
7.112	2.995	0.008
7.143	2.994	0.008
7.174	2.993	0.009
7.205	2.991	0.009
7.236	2.990	0.009
7.267	2.988	0.010
7.299	2.987	0.010
7.331	2.986	0.010
7.364	2.984	0.011
7.396	2.982	0.011
7.429	2.981	0.011
7.463	2.979	0.012
7.496	2.977	0.012
7.530	2.976	0.012
7.564	2.974	0.013
7.599	2.972	0.013
7.634	2.970	0.014
7.669	2.968	0.014
7.704	2.966	0.015
7.740	2.963	0.015
7.776	2.961	0.016
7.812	2.959	0.016
7.849	2.956	0.017
7.886	2.953	0.017
7.924	2.950	0.018
7.962	2.947	0.019
8.000	2.944	0.019
8.039	2.941	0.020
8.078	2.937	0.021
8.117	2.933	0.022
8.157	2.929	0.024
8.197	2.925	0.025
8.237	2.920	0.027
8.278	2.915	0.029
8.319	2.910	0.031
8.361	2.904	0.033
8.403	2.898	0.036
8.446	2.892	0.040
8.489	2.886	0.044
8.532	2.879	0.049
8.576	2.873	0.054
8.621	2.866	0.061
8.666	2.859	0.068
8.711	2.853	0.076
8.757	2.846	0.084
8.803	2.840	0.094
8.850	2.835	0.105
8.897	2.829	0.117
8.945	2.825	0.130
8.993	2.822	0.144
9.042	2.820	0.158
9.091	2.819	0.174
9.141	2.819	0.189
9.191	2.820	0.206
9.242	2.824	0.222
9.294	2.828	0.239
9.346	2.835	0.255
9.398	2.843	0.272
9.452	2.852	0.287
9.506	2.864	0.302
9.560	2.876	0.317
9.615	2.890	0.330
9.671	2.906	0.342
9.728	2.922	0.352
9.785	2.939	0.361
9.843	2.958	0.369
9.901	2.976	0.374
9.960	2.996	0.378
10.020	3.015	0.380
10.081	3.035	0.381
10.142	3.054	0.379
10.204	3.073	0.376
10.267	3.091	0.371
10.331	3.109	0.365
10.395	3.126	0.357
10.460	3.141	0.347
10.526	3.156	0.337
10.593	3.169	0.325
10.661	3.180	0.313
10.730	3.190	0.299
10.799	3.199	0.286
10.870	3.206	0.271
10.941	3.211	0.257
11.013	3.215	0.243
11.086	3.217	0.229
11.161	3.218	0.216
11.236	3.218	0.203
11.312	3.217	0.190
11.390	3.214	0.179
11.468	3.211	0.168
11.547	3.207	0.158
11.628	3.202	0.149
11.710	3.197	0.141
11.792	3.191	0.134
11.876	3.185	0.127
11.962	3.179	0.122
12.048	3.173	0.117
12.136	3.166	0.114
12.225	3.160	0.111
12.315	3.155	0.108
12.407	3.149	0.107
12.500	3.144	0.106
12.594	3.138	0.105
12.690	3.134	0.105
12.788	3.129	0.105
12.887	3.125	0.105
12.987	3.121	0.106
13.089	3.117	0.107
13.193	3.114	0.108
13.298	3.111	0.109
13.405	3.108	0.110
13.514	3.105	0.112
13.624	3.103	0.113
13.736	3.100	0.115
13.850	3.098	0.116
13.966	3.096	0.118
14.085	3.095	0.120
14.205	3.093	0.122
14.327	3.092	0.123
14.451	3.090	0.125
14.577	3.089	0.127
14.706	3.088	0.129
14.837	3.087	0.130
14.970	3.086	0.132
15.106	3.085	0.134
15.244	3.084	0.136
15.385	3.084	0.138
15.528	3.083	0.140
15.674	3.082	0.142
15.823	3.082	0.144
15.974	3.081	0.145
16.129	3.081	0.147
16.287	3.081	0.149
16.447	3.080	0.151
16.611	3.080	0.153
16.779	3.080	0.155
16.949	3.080	0.157
17.123	3.080	0.159
17.301	3.079	0.161
17.483	3.079	0.163
17.668	3.079	0.165
17.857	3.079	0.167
18.051	3.079	0.169
18.248	3.079	0.171
18.450	3.079	0.173
18.657	3.079	0.175
18.868	3.079	0.178
19.084	3.079	0.180
19.305	3.079	0.182
19.531	3.079	0.184
19.763	3.078	0.186
20.000	3.078	0.189
20.243	3.078	0.191
20.492	3.077	0.194
20.747	3.076	0.197
21.008	3.076	0.200
21.277	3.075	0.204
21.552	3.074	0.208
21.834	3.074	0.213
22.124	3.074	0.218
22.422	3.074	0.224
22.727	3.075	0.230
23.041	3.077	0.236
23.364	3.079	0.242
23.697	3.083	0.249
24.038	3.088	0.254
24.390	3.093	0.259
24.752	3.099	0.263
