Material: non-stoichiometric compounds / Si-O / Herguedas-SiO0.61
Optical constants. N. Herguedas and E. Carretero. Optical properties in mid-infrared range of silicon oxide thin films with different stoichiometries. Nanomaterials 13, 2749 (2023)
Comments: SiO0.61. Sputtered Si with 20 sccm O2 and 180 sccm Ar, which is equivalent to a oxygen partial pressure of 1.8 &times; 10-4 mbar and a total pressure of 1.8 &times; 10-3 mbar. Room temperature.
wavelength (um)	n	k
5.000	2.594	0.000
5.015	2.594	0.000
5.030	2.593	0.000
5.045	2.593	0.000
5.061	2.593	0.000
5.076	2.592	0.000
5.092	2.592	0.000
5.107	2.591	0.000
5.123	2.591	0.000
5.139	2.591	0.000
5.155	2.590	0.000
5.171	2.590	0.000
5.187	2.590	0.000
5.203	2.589	0.000
5.219	2.589	0.000
5.236	2.588	0.000
5.252	2.588	0.000
5.269	2.588	0.000
5.285	2.587	0.000
5.302	2.587	0.000
5.319	2.586	0.000
5.336	2.586	0.000
5.353	2.585	0.000
5.371	2.585	0.000
5.388	2.584	0.001
5.405	2.584	0.001
5.423	2.583	0.001
5.441	2.583	0.001
5.459	2.583	0.001
5.476	2.582	0.001
5.495	2.582	0.001
5.513	2.581	0.001
5.531	2.580	0.001
5.549	2.580	0.001
5.568	2.579	0.001
5.587	2.579	0.001
5.605	2.578	0.001
5.624	2.578	0.001
5.643	2.577	0.001
5.663	2.577	0.001
5.682	2.576	0.001
5.701	2.575	0.001
5.721	2.575	0.001
5.741	2.574	0.001
5.760	2.574	0.001
5.780	2.573	0.001
5.800	2.572	0.001
5.821	2.572	0.001
5.841	2.571	0.001
5.862	2.570	0.002
5.882	2.570	0.002
5.903	2.569	0.002
5.924	2.568	0.002
5.945	2.567	0.002
5.967	2.567	0.002
5.988	2.566	0.002
6.010	2.565	0.002
6.031	2.564	0.002
6.053	2.564	0.002
6.075	2.563	0.002
6.098	2.562	0.002
6.120	2.561	0.002
6.143	2.560	0.003
6.165	2.559	0.003
6.188	2.559	0.003
6.211	2.558	0.003
6.234	2.557	0.003
6.258	2.556	0.003
6.281	2.555	0.003
6.305	2.554	0.003
6.329	2.553	0.004
6.353	2.552	0.004
6.378	2.551	0.004
6.402	2.550	0.004
6.427	2.549	0.004
6.452	2.548	0.004
6.477	2.547	0.005
6.502	2.545	0.005
6.527	2.544	0.005
6.553	2.543	0.005
6.579	2.542	0.005
6.605	2.541	0.005
6.631	2.539	0.006
6.658	2.538	0.006
6.684	2.537	0.006
6.711	2.535	0.006
6.739	2.534	0.007
6.766	2.533	0.007
6.793	2.531	0.007
6.821	2.530	0.007
6.849	2.528	0.008
6.878	2.527	0.008
6.906	2.525	0.008
6.935	2.524	0.008
6.964	2.522	0.009
6.993	2.520	0.009
7.022	2.518	0.009
7.052	2.517	0.010
7.082	2.515	0.010
7.112	2.513	0.010
7.143	2.511	0.011
7.174	2.509	0.011
7.205	2.507	0.012
7.236	2.505	0.012
7.267	2.503	0.012
7.299	2.500	0.013
7.331	2.498	0.013
7.364	2.496	0.014
7.396	2.493	0.014
7.429	2.491	0.015
7.463	2.488	0.015
7.496	2.485	0.016
7.530	2.482	0.016
7.564	2.479	0.017
7.599	2.476	0.017
7.634	2.473	0.018
7.669	2.469	0.019
7.704	2.466	0.019
7.740	2.462	0.020
7.776	2.458	0.021
7.812	2.454	0.021
7.849	2.449	0.022
7.886	2.444	0.023
7.924	2.439	0.024
7.962	2.434	0.025
8.000	2.428	0.026
8.039	2.422	0.028
8.078	2.415	0.030
8.117	2.408	0.031
8.157	2.401	0.034
8.197	2.393	0.036
8.237	2.384	0.040
8.278	2.375	0.043
8.319	2.365	0.048
8.361	2.355	0.053
8.403	2.344	0.059
8.446	2.333	0.067
8.489	2.321	0.075
8.532	2.309	0.085
8.576	2.297	0.097
8.621	2.285	0.110
8.666	2.273	0.125
8.711	2.261	0.143
8.757	2.250	0.162
8.803	2.240	0.184
8.850	2.232	0.207
8.897	2.225	0.233
8.945	2.221	0.261
8.993	2.219	0.291
9.042	2.221	0.322
9.091	2.225	0.353
9.141	2.234	0.386
9.191	2.246	0.418
9.242	2.262	0.450
9.294	2.281	0.481
9.346	2.305	0.510
9.398	2.332	0.537
9.452	2.362	0.561
9.506	2.395	0.582
9.560	2.430	0.600
9.615	2.467	0.613
9.671	2.505	0.623
9.728	2.544	0.628
9.785	2.583	0.630
9.843	2.621	0.627
9.901	2.659	0.620
9.960	2.695	0.609
10.020	2.730	0.595
10.081	2.762	0.578
10.142	2.792	0.558
10.204	2.819	0.535
10.267	2.842	0.511
10.331	2.863	0.485
10.395	2.880	0.457
10.460	2.894	0.429
10.526	2.904	0.401
10.593	2.912	0.373
10.661	2.916	0.345
10.730	2.918	0.319
10.799	2.916	0.293
10.870	2.913	0.269
10.941	2.908	0.246
11.013	2.900	0.226
11.086	2.892	0.207
11.161	2.882	0.190
11.236	2.871	0.175
11.312	2.860	0.162
11.390	2.848	0.151
11.468	2.837	0.141
11.547	2.825	0.133
11.628	2.814	0.127
11.710	2.803	0.122
11.792	2.792	0.118
11.876	2.782	0.115
11.962	2.773	0.113
12.048	2.764	0.111
12.136	2.756	0.111
12.225	2.748	0.111
12.315	2.741	0.111
12.407	2.735	0.112
12.500	2.729	0.113
12.594	2.723	0.114
12.690	2.718	0.115
12.788	2.713	0.117
12.887	2.709	0.118
12.987	2.705	0.120
13.089	2.702	0.122
13.193	2.698	0.124
13.298	2.695	0.125
13.405	2.692	0.127
13.514	2.690	0.129
13.624	2.687	0.131
13.736	2.685	0.133
13.850	2.683	0.135
13.966	2.681	0.137
14.085	2.679	0.139
14.205	2.677	0.141
14.327	2.676	0.142
14.451	2.674	0.144
14.577	2.673	0.146
14.706	2.672	0.148
14.837	2.671	0.150
14.970	2.669	0.152
15.106	2.668	0.154
15.244	2.667	0.156
15.385	2.667	0.158
15.528	2.666	0.160
15.674	2.665	0.162
15.823	2.664	0.164
15.974	2.664	0.166
16.129	2.663	0.168
16.287	2.662	0.170
16.447	2.662	0.172
16.611	2.661	0.174
16.779	2.661	0.176
16.949	2.660	0.178
17.123	2.660	0.180
17.301	2.659	0.182
17.483	2.659	0.184
17.668	2.659	0.186
17.857	2.658	0.188
18.051	2.657	0.190
18.248	2.657	0.192
18.450	2.656	0.194
18.657	2.655	0.196
18.868	2.655	0.198
19.084	2.654	0.200
19.305	2.652	0.202
19.531	2.651	0.205
19.763	2.650	0.207
20.000	2.648	0.209
20.243	2.645	0.212
20.492	2.642	0.214
20.747	2.639	0.217
21.008	2.634	0.220
21.277	2.628	0.223
21.552	2.619	0.227
21.834	2.607	0.232
22.124	2.590	0.243
22.422	2.567	0.263
22.727	2.544	0.302
23.041	2.536	0.364
23.364	2.564	0.439
23.697	2.635	0.498
24.038	2.731	0.512
24.390	2.817	0.477
24.752	2.868	0.411
