Material: non-stoichiometric compounds / Si-O / Herguedas-SiO1.92
Optical constants. N. Herguedas and E. Carretero. Optical properties in mid-infrared range of silicon oxide thin films with different stoichiometries. Nanomaterials 13, 2749 (2023)
Comments: SiO1.92. Sputtered Si with 120 sccm O2 and 80 sccm Ar, which is equivalent to a oxygen partial pressure of 7.3 &times; 10-4 mbar and a total pressure of 1.5 &times; 10-3 mbar. Room temperature.
wavelength (um)	n	k
5.000	1.281	0.001
5.015	1.280	0.001
5.030	1.279	0.001
5.045	1.279	0.001
5.061	1.278	0.001
5.076	1.277	0.001
5.092	1.276	0.001
5.107	1.275	0.001
5.123	1.274	0.001
5.139	1.273	0.001
5.155	1.272	0.001
5.171	1.271	0.001
5.187	1.271	0.001
5.203	1.270	0.001
5.219	1.269	0.001
5.236	1.268	0.001
5.252	1.267	0.001
5.269	1.266	0.001
5.285	1.265	0.001
5.302	1.264	0.001
5.319	1.263	0.001
5.336	1.261	0.001
5.353	1.260	0.001
5.371	1.259	0.001
5.388	1.258	0.002
5.405	1.257	0.002
5.423	1.256	0.002
5.441	1.255	0.002
5.459	1.254	0.002
5.476	1.252	0.002
5.495	1.251	0.002
5.513	1.250	0.002
5.531	1.249	0.002
5.549	1.247	0.002
5.568	1.246	0.002
5.587	1.245	0.002
5.605	1.243	0.002
5.624	1.242	0.002
5.643	1.240	0.002
5.663	1.239	0.002
5.682	1.238	0.002
5.701	1.236	0.003
5.721	1.235	0.003
5.741	1.233	0.003
5.760	1.231	0.003
5.780	1.230	0.003
5.800	1.228	0.003
5.821	1.227	0.003
5.841	1.225	0.003
5.862	1.223	0.003
5.882	1.221	0.003
5.903	1.220	0.003
5.924	1.218	0.004
5.945	1.216	0.004
5.967	1.214	0.004
5.988	1.212	0.004
6.010	1.210	0.004
6.031	1.208	0.004
6.053	1.206	0.004
6.075	1.204	0.004
6.098	1.202	0.004
6.120	1.200	0.005
6.143	1.198	0.005
6.165	1.195	0.005
6.188	1.193	0.005
6.211	1.191	0.005
6.234	1.188	0.005
6.258	1.186	0.006
6.281	1.183	0.006
6.305	1.181	0.006
6.329	1.178	0.006
6.353	1.175	0.006
6.378	1.172	0.006
6.402	1.169	0.007
6.427	1.166	0.007
6.452	1.163	0.007
6.477	1.160	0.007
6.502	1.157	0.007
6.527	1.154	0.008
6.553	1.151	0.008
6.579	1.147	0.008
6.605	1.144	0.008
6.631	1.140	0.009
6.658	1.136	0.009
6.684	1.132	0.009
6.711	1.128	0.009
6.739	1.124	0.010
6.766	1.120	0.010
6.793	1.115	0.010
6.821	1.111	0.010
6.849	1.106	0.011
6.878	1.101	0.011
6.906	1.096	0.011
6.935	1.091	0.012
6.964	1.086	0.012
6.993	1.080	0.013
7.022	1.074	0.013
7.052	1.068	0.013
7.082	1.062	0.014
7.112	1.056	0.014
7.143	1.049	0.015
7.174	1.042	0.015
7.205	1.034	0.016
7.236	1.026	0.016
7.267	1.018	0.017
7.299	1.009	0.017
7.331	1.000	0.018
7.364	0.991	0.019
7.396	0.981	0.019
7.429	0.970	0.020
7.463	0.959	0.021
7.496	0.946	0.022
7.530	0.933	0.023
7.564	0.919	0.024
7.599	0.904	0.025
7.634	0.888	0.027
7.669	0.870	0.029
7.704	0.850	0.032
7.740	0.829	0.035
7.776	0.805	0.040
7.812	0.779	0.047
7.849	0.751	0.055
7.886	0.720	0.067
7.924	0.687	0.082
7.962	0.652	0.102
8.000	0.615	0.129
8.039	0.579	0.163
8.078	0.546	0.205
8.117	0.519	0.254
8.157	0.500	0.307
8.197	0.491	0.362
8.237	0.489	0.414
8.278	0.493	0.461
8.319	0.500	0.504
8.361	0.507	0.541
8.403	0.512	0.573
8.446	0.514	0.603
8.489	0.510	0.631
8.532	0.500	0.660
8.576	0.482	0.695
8.621	0.458	0.739
8.666	0.431	0.796
8.711	0.405	0.869
8.757	0.387	0.959
8.803	0.382	1.062
8.850	0.394	1.177
8.897	0.426	1.298
8.945	0.480	1.421
8.993	0.555	1.541
9.042	0.652	1.655
9.091	0.770	1.758
9.141	0.907	1.847
9.191	1.061	1.916
9.242	1.227	1.963
9.294	1.403	1.985
9.346	1.582	1.980
9.398	1.761	1.948
9.452	1.933	1.889
9.506	2.094	1.804
9.560	2.238	1.697
9.615	2.363	1.570
9.671	2.464	1.429
9.728	2.540	1.279
9.785	2.591	1.124
9.843	2.616	0.970
9.901	2.618	0.822
9.960	2.599	0.683
10.020	2.562	0.556
10.081	2.511	0.445
10.142	2.450	0.349
10.204	2.383	0.270
10.267	2.313	0.206
10.331	2.243	0.156
10.395	2.175	0.119
10.460	2.112	0.092
10.526	2.053	0.074
10.593	2.000	0.062
10.661	1.951	0.055
10.730	1.908	0.051
10.799	1.868	0.049
10.870	1.833	0.049
10.941	1.800	0.049
11.013	1.769	0.051
11.086	1.739	0.053
11.161	1.711	0.056
11.236	1.682	0.060
11.312	1.654	0.066
11.390	1.626	0.074
11.468	1.598	0.087
11.547	1.570	0.103
11.628	1.546	0.126
11.710	1.526	0.153
11.792	1.513	0.186
11.876	1.510	0.221
11.962	1.517	0.256
12.048	1.535	0.286
12.136	1.561	0.308
12.225	1.593	0.319
12.315	1.625	0.320
12.407	1.656	0.310
12.500	1.681	0.291
12.594	1.698	0.265
12.690	1.708	0.237
12.788	1.709	0.208
12.887	1.703	0.180
12.987	1.691	0.156
13.089	1.675	0.136
13.193	1.657	0.121
13.298	1.637	0.110
13.405	1.618	0.104
13.514	1.600	0.100
13.624	1.584	0.099
13.736	1.569	0.099
13.850	1.555	0.100
13.966	1.542	0.102
14.085	1.531	0.104
14.205	1.520	0.107
14.327	1.510	0.109
14.451	1.500	0.112
14.577	1.490	0.115
14.706	1.481	0.117
14.837	1.472	0.120
14.970	1.463	0.123
15.106	1.454	0.126
15.244	1.446	0.129
15.385	1.437	0.132
15.528	1.428	0.136
15.674	1.419	0.139
15.823	1.410	0.142
15.974	1.400	0.146
16.129	1.391	0.149
16.287	1.381	0.153
16.447	1.371	0.157
16.611	1.360	0.161
16.779	1.349	0.166
16.949	1.337	0.170
17.123	1.324	0.175
17.301	1.310	0.180
17.483	1.296	0.185
17.668	1.280	0.191
17.857	1.262	0.197
18.051	1.243	0.204
18.248	1.221	0.212
18.450	1.196	0.220
18.657	1.168	0.230
18.868	1.134	0.242
19.084	1.094	0.257
19.305	1.044	0.276
19.531	0.981	0.306
19.763	0.903	0.354
20.000	0.811	0.439
20.243	0.726	0.579
20.492	0.688	0.773
20.747	0.721	0.987
21.008	0.821	1.189
21.277	0.977	1.360
21.552	1.178	1.487
21.834	1.407	1.558
22.124	1.648	1.566
22.422	1.879	1.511
22.727	2.083	1.399
23.041	2.243	1.243
23.364	2.349	1.061
23.697	2.399	0.872
24.038	2.397	0.694
24.390	2.354	0.541
24.752	2.285	0.422
