Material: main / Ar / Zahedpour
Optical constants. S. Zahedpour, J. K. Wahlstrand, H. M. Milchberg. Measurement of the nonlinear refractive index of air constituents at mid-infrared wavelengths. Opt. Lett. 40, 5794-5795 (2015)
Comments: 40 fs. Single-shot supercontinuum spectral interferometry. Room temperature, atmospheric pressure.
Conditions: {"n2_method": "SI", "pulse_duration": "40e-15"}
wavelength (um)	n	2
0.40	10.9e-24
0.80	10.1e-24
1.25	10.5e-24
1.65	10.9e-24
2.20	9.3e-24
2.40	9.9e-24
