Material: main / Si / Franta-450K
Optical constants. D. Franta, A. Dubroka, C. Wang, A. Giglia, J. Vohánka, P. Franta, I. Ohlídal. Temperature-dependent dispersion model of float zone crystalline silicon, Appl. Surf. Sci. 421, 405-419 (2017) (Numerical data kindly provided by Daniel Franta)
Comments: Float zone c-Si; Heterogenous data processing combining ellipsometric and spectrophotometric measurements with refractive index determined in B. J. Frey, D. B. Leviton, T. J. Madison. Temperature-dependent refractive index of silicon and germanium, Proc. SPIE 6273, 62732J (2006). Numerical procedures updated in D. Franta, P. Franta, J. Vohánka, M. Čermák, I. Ohlídal. Determination of thicknesses and temperatures of crystalline silicon wafers from optical measurements in the far infrared region, J. Appl. Phys. 123, 185707 (2018). Temperature 450 K."
Conditions: {"temperature": 450}
wavelength (um)	n	k
0.0309963	0.916577447684	0.00996665972293
0.0317914	0.9115695493	0.0108207269286
0.0326069	0.906285685872	0.0117498604561
0.0334434	0.900708537777	0.012760853557
0.0343012	0.894818323848	0.0138611545435
0.0351811	0.888588042672	0.0150590174909
0.0360836	0.882025539522	0.0163628387648
0.0370092	0.875091716677	0.0177825856523
0.0379586	0.867749679422	0.0193291777084
0.0389323	0.859987823583	0.0210140052746
0.039931	0.851791872749	0.022849491226
0.0409553	0.843075612341	0.0248512298673
0.0420059	0.833863880618	0.0270331817947
0.0430834	0.824100307134	0.0294130247305
0.0441886	0.813742096001	0.0320098577131
0.0453221	0.8023284128	0.0348629308521
0.0464847	0.791418535601	0.0379244330856
0.0476771	0.778412397899	0.0413385056228
0.0489001	0.765483365939	0.0450257866268
0.0501545	0.751188284523	0.0490946916865
0.0514411	0.736051790156	0.0535515673958
0.0527606	0.71979182209	0.0584568915293
0.054114	0.702529020559	0.0638492433411
0.0555022	0.683757039109	0.0698325507466
0.0569259	0.663467989488	0.0764865561459
0.0583862	0.641324316341	0.0839584406446
0.0598839	0.617292836232	0.0924015173368
0.06142	0.590203440159	0.102203080204
0.0629956	0.559574232508	0.114065821866
0.0646115	0.523746783274	0.130933932172
0.0662689	0.486450084691	0.15772292493
0.0679688	0.456119351346	0.192565715837
0.0697124	0.432928561887	0.22512896429
0.0715006	0.4075181797	0.254374867343
0.0733348	0.377129896103	0.286753648695
0.0752159	0.345183042713	0.325807012954
0.0771454	0.315220735375	0.3718585942
0.0791243	0.289494691417	0.424260592323
0.081154	0.270117366967	0.480076994305
0.0832357	0.256311705747	0.535708035559
0.0853709	0.244984121394	0.590671493103
0.0875608	0.234559134651	0.645536108723
0.0898069	0.22342787284	0.703465854714
0.0921107	0.215625389258	0.767536873467
0.0944735	0.215476614528	0.834510221975
0.0968969	0.221892418706	0.899918314417
0.0993825	0.231776956633	0.96269841793
0.101932	0.243337475832	1.02408272851
0.104547	0.256337149831	1.08529959931
0.107228	0.271233541985	1.14745261801
0.109979	0.289043054685	1.21116310863
0.1128	0.312150761173	1.27719131579
0.115694	0.345524553624	1.34281661983
0.118662	0.390226744404	1.39675061986
0.121705	0.429625674281	1.43068966741
0.124827	0.449174636904	1.46184434871
0.128029	0.460947969894	1.50624813421
0.131314	0.477857705491	1.55882743888
0.134682	0.499596563123	1.61202172484
0.138137	0.523497571121	1.66412872137
0.14168	0.547279306031	1.71393804571
0.145315	0.566004283476	1.76446772084
0.149042	0.58422259556	1.82381948666
0.152866	0.611834226042	1.88574306465
0.156787	0.641923638649	1.93837972012
0.160809	0.658786050865	1.98753015794
0.164934	0.664951296167	2.05233465718
0.169165	0.677992330989	2.13496008317
0.173504	0.703818509781	2.22483066775
0.177955	0.738881918582	2.31563068475
0.18252	0.780091678187	2.40905549827
0.187202	0.829949768322	2.5027769455
0.192004	0.883728613501	2.59612884428
0.196929	0.94183187168	2.69223034523
0.201981	1.00598419839	2.79182754356
0.207162	1.07785583517	2.89485991644
0.212476	1.15929128611	3.00083570688
0.217926	1.25330324765	3.10846065019
0.223517	1.36442103743	3.21145752282
0.22925	1.48776963422	3.29349633942
0.235131	1.59304903089	3.34849061415
0.241163	1.65326330844	3.41193934107
0.247349	1.68834952089	3.52873463172
0.253694	1.73392511988	3.7088721925
0.260202	1.80811902657	3.96160165773
0.266876	1.96467095526	4.32025134797
0.273722	2.33151617299	4.75005746771
0.280744	2.98129014638	5.07258932525
0.287945	3.81651632744	5.07373357887
0.295332	4.54260457174	4.65825291919
0.302907	4.89455976324	4.07737471174
0.310678	4.97894828041	3.62873218042
0.318647	4.99711324061	3.34845702393
0.326821	5.03584137967	3.16986524647
0.335205	5.11354660297	3.04489877884
0.343803	5.2375506612	2.95258726258
0.352622	5.43709073789	2.89299082518
0.361668	5.82039957584	2.79782932206
0.370945	6.37915044055	2.37862594948
0.380461	6.56543095984	1.46111099941
0.39022	6.1583159825	0.817256857072
0.40023	5.78459827974	0.54423167777
0.410497	5.49835017928	0.373093141684
0.421027	5.25397478277	0.259852577152
0.431827	5.04675183455	0.189765889285
0.442904	4.8741957373	0.147077418919
0.454266	4.73072211409	0.120151253733
0.465918	4.61028178162	0.102165323416
0.47787	4.5079348723	0.0894139032101
0.490128	4.41997642036	0.0797777248091
0.502701	4.3435839123	0.0719366038187
0.515596	4.27651117219	0.06506445135
0.528822	4.21695032599	0.058701442472
0.542388	4.16346898649	0.0526559111786
0.556301	4.11496980155	0.0469040706595
0.570571	4.07063657885	0.0415009632791
0.585207	4.02987583753	0.0365175478161
0.600219	3.99224928416	0.0320070157639
0.615616	3.95742690584	0.0279935398237
0.631408	3.92514402529	0.0244742401207
0.647605	3.89518382236	0.021426431896
0.664217	3.86735705357	0.0188156213519
0.681255	3.84149913097	0.0166019072199
0.698731	3.81746055587	0.0147442682647
0.716655	3.7951105764	0.0132026389476
0.735038	3.77433385985	0.0119379900317
0.753893	3.75503014852	0.0109103227186
0.773232	3.73711391612	0.0100744262218
0.793067	3.72050903187	0.0093737316228
0.813411	3.70513597276	0.0087347749869
0.834276	3.69089775235	0.00806942463245
0.855677	3.67765566703	0.00729530812958
0.877627	3.66523727417	0.00637386799995
0.90014	3.65347110086	0.00533744894752
0.92323	3.64224053796	0.00427185137982
0.946913	3.63149411481	0.00326840463783
0.971203	3.62122692065	0.00239053681577
0.996116	3.6114512348	0.001668425519
1.02167	3.60217880735	0.0011061718687
1.04788	3.59341419888	0.000690843239285
1.07476	3.58515426142	0.000401128561908
1.10233	3.57738534734	0.000214142523239
1.1306	3.57009193627	0.000109289023844
1.1596	3.56326170536	5.58439396683e-05
1.18935	3.5568520272	2.33050708124e-05
1.21986	3.55082761802	6.15909685565e-06
1.25115	3.54516032147	8.49884942963e-07
1.28325	3.53982798272	6.50458985301e-07
1.31616	3.53480396993	5.58528180649e-07
1.34993	3.53006537236	4.87349245862e-07
1.38455	3.52559267421	4.30736066647e-07
1.42007	3.52136843683	3.84654805122e-07
1.4565	3.51737735883	3.46412218393e-07
1.49386	3.51360447632	3.14165886251e-07
1.53218	3.51003685207	2.86623690196e-07
1.57148	3.5066618105	2.62856942124e-07
1.6118	3.50346849067	2.4218185694e-07
1.65314	3.50044587358	2.24083489374e-07
1.69555	3.49758421333	2.08165701486e-07
1.73904	3.49487410489	1.94117939235e-07
1.78365	3.49230720515	1.81692581912e-07
1.82941	3.48987545129	1.70689349287e-07
1.87633	3.48757098378	1.6094427767e-07
1.92446	3.48538709143	1.52321762447e-07
1.97383	3.48331691652	1.44708836435e-07
2.02446	3.48135411841	1.38010836443e-07
2.07639	3.47949322009	1.32148141209e-07
2.12966	3.47772846762	1.27053723088e-07
2.18429	3.47605453549	1.22671179293e-07
2.24032	3.47446672458	1.18953199999e-07
2.29779	3.4729604022	1.15860375453e-07
2.35673	3.47153132176	1.13360211912e-07
2.41718	3.4701753004	1.11434792003e-07
2.47919	3.46888827715	1.10058463813e-07
2.54279	3.46766690728	1.09210016208e-07
2.60801	3.46650756235	1.08878584877e-07
2.67491	3.46540710806	1.09057428705e-07
2.74353	3.46436250841	1.09743698951e-07
2.81391	3.46337067743	1.10938251071e-07
2.88609	3.46242903267	1.1264547852e-07
2.96012	3.46153482977	1.14873224426e-07
3.03606	3.46068578563	1.17632686742e-07
3.11394	3.45987936542	1.20938398634e-07
3.19382	3.4591135552	1.2480818787e-07
3.27574	3.4583861921	1.29263211258e-07
3.35977	3.45769528861	1.34327979637e-07
3.44596	3.45703910099	1.40030413373e-07
3.53435	3.45641572502	1.46401938368e-07
3.62502	3.45582331458	1.53477579266e-07
3.718	3.45526059968	1.61296056021e-07
3.81338	3.45472599387	1.69899960977e-07
3.9112	3.45421806762	1.79335896221e-07
4.01153	3.45373525252	1.89654663856e-07
4.11443	3.45327639712	2.0091142961e-07
4.21998	3.45284032108	2.13165954397e-07
4.32823	3.45242598723	2.26482810914e-07
4.43925	3.45203201131	2.40931659039e-07
4.55313	3.45165748556	2.56587452691e-07
4.66992	3.45130139609	2.73530753224e-07
4.78972	3.4509627983	2.91928522301e-07
4.91258	3.45064083884	3.15270003374e-07
5.0386	3.450334415	3.52070489434e-07
5.16785	3.45004289104	6.51441403189e-07
5.30042	3.44976597968	7.77428442173e-07
5.43638	3.44950215877	8.86776544508e-07
5.57583	3.44925075192	1.24237124413e-06
5.71887	3.44901203199	1.6110051258e-06
5.86557	3.44878412157	1.70192699041e-06
6.01603	3.44856672231	1.99225458759e-06
6.17035	3.44835931112	2.6918134213e-06
6.32863	3.44816117345	3.44907524443e-06
6.49097	3.44797112363	3.664815873e-06
6.65748	3.44778503412	5.67323039815e-06
6.82826	3.44760361174	2.3462024658e-05
7.00342	3.44746745283	4.01134971064e-05
7.18307	3.44731422861	3.03703661584e-05
7.36733	3.44716877629	3.18958146723e-05
7.55631	3.44702117156	3.42134988991e-05
7.75015	3.44689719355	4.76697274888e-05
7.94895	3.44677668325	3.65052570265e-05
8.15286	3.44664232061	2.89684507553e-05
8.36199	3.44650291886	4.0505634125e-05
8.5765	3.44638670055	6.92901601263e-05
8.7965	3.44628405125	0.000100040746109
9.02215	3.44622199754	0.000121164510146
9.25358	3.44615392884	9.9019067645e-05
9.49095	3.44604963239	7.05902116007e-05
9.73442	3.44592900643	6.81762589039e-05
9.98412	3.44581331356	9.11951632113e-05
10.2402	3.44571500759	0.00014309251736
10.5029	3.44566897038	0.000177715985212
10.7723	3.44558437067	0.000184110257312
11.0487	3.44551087253	0.000253714781931
11.3321	3.44551055317	0.000291517296924
11.6228	3.44550196492	0.000278349920077
11.9209	3.44542948814	0.000236123691139
12.2267	3.44533574526	0.000300863980724
12.5404	3.44532246796	0.000283913274265
12.862	3.44527106305	0.000336170399314
13.192	3.44523707435	0.000367243042505
13.5304	3.4452255843	0.000447499346218
13.8775	3.44536593034	0.00038575236118
14.2334	3.44528035155	0.000181849279137
14.5986	3.44510492004	0.000191801875777
14.973	3.44497729421	0.000198686969508
15.3571	3.4448202076	0.00022208468325
15.7511	3.44452460145	0.00027038764852
16.1551	3.44406128967	0.00143505806146
16.5695	3.44538873078	0.00161237013415
16.9946	3.44567664903	0.000746612125828
17.4305	3.44538472166	0.000560667740875
17.8776	3.44535935161	0.000623862212625
18.3362	3.44536547675	0.000563684514757
18.8066	3.44533961146	0.000513660981997
19.289	3.44532931996	0.000506130819733
19.7838	3.44534653571	0.000474581464284
20.2913	3.44533959742	0.000439297978087
20.8118	3.44535735019	0.00039823489342
21.3457	3.44534256763	0.000329580873133
21.8932	3.44530846603	0.000284693411936
22.4548	3.44527267833	0.000250690814429
23.0308	3.44523820812	0.000224478745299
23.6216	3.44520251488	0.000202179868287
24.2276	3.44516490928	0.000186697536273
24.8491	3.44512835066	0.000177794574986
25.4865	3.44509186453	0.000175033001192
26.1403	3.44505478082	0.000186792673676
26.8108	3.44505112449	0.000201957381769
27.4986	3.44503825839	0.000196856369392
28.2039	3.44502181912	0.000195447872838
28.9274	3.44500557727	0.000195901250075
29.6695	3.44498956159	0.000198216983533
30.4306	3.44497558631	0.000202951810228
31.2112	3.44496014646	0.000208584150462
32.0118	3.44495476493	0.000228297954765
32.8329	3.44496189508	0.000221441928505
33.6752	3.44495210968	0.000218631116453
34.539	3.44494380563	0.000219460710139
35.425	3.44493633246	0.000221035838117
36.3337	3.44492951349	0.000222820186592
37.2658	3.44492272239	0.000224675223578
38.2217	3.44491578978	0.00022754427892
39.2021	3.44491044094	0.000230393050042
40.2078	3.44490365402	0.000233169595008
41.2392	3.44489845487	0.000237406674976
42.297	3.44489098016	0.000240491844964
43.382	3.44488379217	0.000248056061631
44.4949	3.44487930168	0.000256709945599
45.6362	3.44487640733	0.000265410565174
46.8069	3.44487479563	0.000274132711571
48.0076	3.44487368189	0.000282994478406
49.2391	3.444873057	0.000292614803298
50.5022	3.44487423577	0.000303281218064
51.7976	3.44487701448	0.000314181758186
53.1263	3.44488165802	0.000324985557584
54.4891	3.44488743515	0.000335664579502
55.8869	3.44489533618	0.00034616326129
57.3205	3.44490442783	0.000356341678959
58.7909	3.4449154451	0.000366052154154
60.299	3.44492818122	0.000375259409854
61.8458	3.44494281505	0.000384822942622
63.4322	3.44496277455	0.000397208795069
65.0594	3.44499914053	0.00040223519414
66.7283	3.44503599102	0.000380202436822
68.44	3.44504684704	0.00034519745039
70.1956	3.445040444	0.000323623450834
71.9963	3.44503408728	0.000311700525343
73.8431	3.44502439158	0.000304531469434
75.7373	3.44501469318	0.000306553479949
77.6801	3.44501009418	0.000313911586146
79.6728	3.44500970787	0.000329197873568
81.7165	3.44502649856	0.000347662897714
83.8127	3.44505868437	0.000350580679866
85.9627	3.44508651701	0.000332228633126
88.1678	3.44509590335	0.000306187404071
90.4294	3.4450953687	0.000284796996918
92.7491	3.44508912773	0.000270552616671
95.1283	3.44508147048	0.000261448949645
97.5686	3.44507590996	0.000255479139586
100.071	3.44506941875	0.000251483790479
102.638	3.44506580108	0.000248839745667
105.271	3.44506255485	0.000247179111195
107.972	3.44505959198	0.000246260457473
110.741	3.44505749641	0.000245918885116
113.582	3.44505249895	0.000246040580691
116.496	3.44504954109	0.000246542649332
119.484	3.44505008204	0.000247359972573
122.549	3.44504631313	0.000248436883877
125.693	3.44504630516	0.00024972083576
128.917	3.44504560192	0.00025116477581
132.224	3.44504398221	0.000252733839012
135.616	3.44504357524	0.000254420596876
139.094	3.44504177523	0.000256258600893
142.663	3.44503916481	0.000258318193641
146.322	3.44504242057	0.00026068086222
150.076	3.44503383829	0.000263407477107
153.925	3.44504268145	0.000266511529212
157.874	3.4450315778	0.000269969910337
161.923	3.44504265005	0.00027373046505
166.077	3.44503740221	0.00027774538303
170.337	3.44503260859	0.000281973426904
174.707	3.44503471071	0.000286388433831
179.188	3.44503282991	0.000290977542956
183.785	3.44503149443	0.000295734411626
188.499	3.44503471102	0.000300657065946
193.335	3.44503669715	0.00030574655498
198.294	3.44503067833	0.00031100508975
203.381	3.44502225916	0.000316434306119
208.598	3.44502659436	0.000322035219713
213.949	3.44502599032	0.000327812094645
219.437	3.44504766504	0.000333765149197
225.066	3.44503275137	0.000339903067515
230.839	3.44502545888	0.00034622474816
236.761	3.44501378923	0.000352734660871
242.834	3.44503782159	0.000359432066861
249.063	3.44501448246	0.000366329138542
255.452	3.44504384884	0.000373419007568
262.005	3.44503799371	0.000380714898249
268.726	3.44504191495	0.000388215958942
275.619	3.44506471999	0.000395925239253
282.69	3.44503295094	0.000403855557917
289.941	3.44502751174	0.000412002149564
297.379	3.44503766947	0.00042037086392
305.007	3.44502166719	0.000428971716748
