Material: main / Si / Franta-350K
Optical constants. D. Franta, A. Dubroka, C. Wang, A. Giglia, J. Vohánka, P. Franta, I. Ohlídal. Temperature-dependent dispersion model of float zone crystalline silicon, Appl. Surf. Sci. 421, 405-419 (2017) (Numerical data kindly provided by Daniel Franta)
Comments: Float zone c-Si; Heterogenous data processing combining ellipsometric and spectrophotometric measurements with refractive index determined in B. J. Frey, D. B. Leviton, T. J. Madison. Temperature-dependent refractive index of silicon and germanium, Proc. SPIE 6273, 62732J (2006). Numerical procedures updated in D. Franta, P. Franta, J. Vohánka, M. Čermák, I. Ohlídal. Determination of thicknesses and temperatures of crystalline silicon wafers from optical measurements in the far infrared region, J. Appl. Phys. 123, 185707 (2018). Temperature 350 K."
Conditions: {"temperature": 350}
wavelength (um)	n	k
0.0309963	0.916695560862	0.0102974210023
0.0317914	0.911707739379	0.0111788809963
0.0326069	0.9064470781	0.012137535715
0.0334434	0.900895864517	0.0131803114678
0.0343012	0.895027304913	0.0143148955111
0.0351811	0.888859685133	0.0155489055465
0.0360836	0.882323509691	0.0168921259162
0.0370092	0.87544129554	0.0183535308667
0.0379586	0.868137873443	0.0199448652893
0.0389323	0.860433713389	0.0216768339213
0.039931	0.85230618438	0.0235619501676
0.0409553	0.843677559075	0.0256154512919
0.0420059	0.834540909289	0.0278519951022
0.0430834	0.824872602531	0.0302879412235
0.0441886	0.814639532828	0.0329414026754
0.0453221	0.803614880113	0.0358407505171
0.0464847	0.791626677112	0.0390170248134
0.0476771	0.779450592157	0.0424551021109
0.0489001	0.766467494083	0.0462085348117
0.0501545	0.752511609295	0.0503163868193
0.0514411	0.737732598134	0.0548014105301
0.0527606	0.721391789453	0.0597581634303
0.054114	0.704408013728	0.0651592310662
0.0555022	0.68621132568	0.0710998409338
0.0569259	0.665949877232	0.0777395503981
0.0583862	0.644683525021	0.0850552204384
0.0598839	0.620562154587	0.0934131336753
0.06142	0.593753076813	0.103010228872
0.0629956	0.563866536345	0.114462672202
0.0646115	0.528790398401	0.130646115665
0.0662689	0.491704766273	0.156494010588
0.0679688	0.461336327251	0.190337604739
0.0697124	0.437833801031	0.222119930861
0.0715006	0.412040573849	0.250432568023
0.0733348	0.381045043615	0.281577213971
0.0752159	0.347620394072	0.319755648617
0.0771454	0.31544750973	0.365804193387
0.0791243	0.287528924554	0.419142799009
0.081154	0.266588910371	0.477491599906
0.0832357	0.253211001868	0.536734330943
0.0853709	0.244849132245	0.594301519259
0.0875608	0.238406451663	0.649334889204
0.0898069	0.230196659218	0.704856360028
0.0921107	0.223176671205	0.7659774281
0.0944735	0.222489558963	0.830596205153
0.0968969	0.22794887095	0.894506422846
0.0993825	0.23682554975	0.956280496379
0.101932	0.247371633711	1.01691563242
0.104547	0.259315739376	1.0776573831
0.107228	0.273145035904	1.1394888784
0.109979	0.289853293864	1.20318959375
0.1128	0.311859513854	1.26947521279
0.115694	0.344241856468	1.33581721577
0.118662	0.388672335758	1.39097940599
0.121705	0.428722174263	1.42569193341
0.124827	0.449360876908	1.45689864483
0.128029	0.461752590061	1.50007412035
0.131314	0.478278013028	1.55145136357
0.134682	0.499248901845	1.60364314206
0.138137	0.522010521779	1.65497744728
0.14168	0.544511301826	1.7043127767
0.145315	0.561807538194	1.75426267318
0.149042	0.577716597147	1.81320976718
0.152866	0.602596764089	1.87590167654
0.156787	0.63046987697	1.93012562957
0.160809	0.645232839849	1.98072250279
0.164934	0.647850892524	2.04767526304
0.169165	0.656700130686	2.13647389624
0.173504	0.684118712852	2.23717572585
0.177955	0.728686384037	2.33326839442
0.18252	0.775760683674	2.42689899635
0.187202	0.833109474238	2.51922869304
0.192004	0.891371192765	2.60843548348
0.196929	0.95192877166	2.69958474794
0.201981	1.0162067371	2.79380512929
0.207162	1.08542356579	2.89182978413
0.212476	1.16075378986	2.99469390063
0.217926	1.24504771588	3.10544706743
0.223517	1.35261368809	3.22542082718
0.22925	1.50048649881	3.32048662869
0.235131	1.62906296634	3.34589496979
0.241163	1.66249459449	3.37736416876
0.247349	1.66288590784	3.50580097798
0.253694	1.69795262013	3.70966314781
0.260202	1.768502817	3.98352871563
0.266876	1.93020040083	4.37372773754
0.273722	2.33080470083	4.82545017756
0.280744	2.9879652951	5.14684431851
0.287945	3.8972382174	5.22390027187
0.295332	4.74840968976	4.6564173795
0.302907	4.97137615215	3.97288698458
0.310678	4.98282155115	3.58117366615
0.318647	5.01330846733	3.34826379057
0.326821	5.07946601682	3.17540899028
0.335205	5.16684572349	3.03938408858
0.343803	5.2863856831	2.94761881238
0.352622	5.48504023762	2.92295053178
0.361668	6.00379209153	2.90137023709
0.370945	6.74522404582	2.19619188067
0.380461	6.60858400531	1.08056048398
0.39022	6.06341810308	0.591963175123
0.40023	5.67313586058	0.385544992329
0.410497	5.37391717889	0.26935254947
0.421027	5.13969085437	0.202231471431
0.431827	4.95302531853	0.158626692874
0.442904	4.79906543473	0.12746233188
0.454266	4.66872967955	0.104654713478
0.465918	4.55686963137	0.0880217373376
0.47787	4.46015993847	0.0758033067157
0.490128	4.37603955143	0.0665148203239
0.502701	4.30233617964	0.0590247017145
0.515596	4.23718569294	0.0525822367387
0.528822	4.1790284079	0.0467695822187
0.542388	4.12662134002	0.0414077440944
0.556301	4.07900937636	0.0364557397856
0.570571	4.03547576802	0.0319304851428
0.585207	3.99548563989	0.0278573621317
0.600219	3.95862981416	0.0242476757224
0.615616	3.92458671292	0.0210934775908
0.631408	3.89308879042	0.0183709583982
0.647605	3.86391146396	0.0160463518299
0.664217	3.83685690294	0.0140814459094
0.681255	3.81175195653	0.0124374373479
0.698731	3.78844284387	0.0110769890548
0.716655	3.76679581761	0.009964498824
0.735038	3.74669339052	0.00906457729147
0.753893	3.72803527099	0.00833850572473
0.773232	3.71073373694	0.00773873054555
0.793067	3.6947039227	0.00720301512781
0.813411	3.67984811875	0.00665399648602
0.834276	3.66603643947	0.0060144130286
0.855677	3.65310294749	0.00524179356251
0.877627	3.64087761831	0.00435965673398
0.90014	3.62923907165	0.00344762766382
0.92323	3.61813397589	0.00259429438962
0.946913	3.60755475024	0.00185930925405
0.971203	3.59751044	0.00126685314586
0.996116	3.58800659905	0.000815592354479
1.02167	3.57904037683	0.000490061758137
1.04788	3.57059992933	0.000269404780016
1.07476	3.56266512295	0.000133006426353
1.10233	3.55521726585	6.30948739944e-05
1.1306	3.54823898855	3.09658997389e-05
1.1596	3.54168635906	1.19269963004e-05
1.18935	3.53552351219	2.47187573816e-06
1.21986	3.5297230579	1.6585795107e-07
1.25115	3.52426036597	1.03559113007e-07
1.28325	3.51910982918	6.87661020084e-08
1.31616	3.51425017792	4.67512458542e-08
1.34993	3.50966185021	3.25265782886e-08
1.38455	3.50532791609	2.31427322439e-08
1.42007	3.50123224638	1.68247934705e-08
1.4565	3.49736003208	1.24856762969e-08
1.49386	3.49369810041	9.44781151576e-09
1.53218	3.49023368194	7.28148247119e-09
1.57148	3.48695515404	5.70944469052e-09
1.6118	3.48385200591	4.54978388791e-09
1.65314	3.48091415317	3.68115210965e-09
1.69555	3.4781315714	3.02129282129e-09
1.73904	3.4754959065	2.51357294102e-09
1.78365	3.47299912908	2.11841367416e-09
1.82941	3.4706332915	1.80775526526e-09
1.87633	3.46839083633	1.56143062155e-09
1.92446	3.46626525099	1.36475628094e-09
1.97383	3.46425003657	1.20691096859e-09
2.02446	3.4623390881	1.07982874934e-09
2.07639	3.46052690036	9.7743434051e-10
2.12966	3.45880835168	8.95108365684e-10
2.18429	3.45717820292	8.29308965303e-10
2.24032	3.45563156705	7.77300765805e-10
2.29779	3.45416424291	7.36958875744e-10
2.35673	3.45277193709	7.087945937e-10
2.41718	3.45145049706	6.89655826942e-10
2.47919	3.45019656936	6.77805203439e-10
2.54279	3.44900618423	6.72567135456e-10
2.60801	3.44787658891	6.73415874748e-10
2.67491	3.44680388958	6.7995030789e-10
2.74353	3.4457859339	6.91873254625e-10
2.81391	3.44481905698	7.08976288457e-10
2.88609	3.44390123538	7.31126674937e-10
2.96012	3.44302964785	7.58258102126e-10
3.03606	3.4422019342	7.90362793053e-10
3.11394	3.44141575609	8.27485667538e-10
3.19382	3.44066910439	8.69719714429e-10
3.27574	3.43996005706	9.17202604221e-10
3.35977	3.43928664789	9.7011420486e-10
3.44596	3.43864676092	1.02867486323e-09
3.53435	3.43803900093	1.09314402704e-09
3.62502	3.43746142469	1.16382002796e-09
3.718	3.43691318266	1.24103942747e-09
3.81338	3.43639180569	1.32517821714e-09
3.9112	3.43589657257	1.41665126321e-09
4.01153	3.43542598042	1.51591413404e-09
4.11443	3.43497866709	1.62346399196e-09
4.21998	3.43455360699	1.73984094855e-09
4.32823	3.43414996335	1.86562979227e-09
4.43925	3.43376588593	2.0014625683e-09
4.55313	3.43340103159	2.14801933065e-09
4.66992	3.43305390559	2.30604118318e-09
4.78972	3.43272415359	2.62971396063e-09
4.91258	3.43241035017	5.94678555208e-09
5.0386	3.43211215385	2.69770708362e-08
5.16785	3.43182841879	2.30751218397e-07
5.30042	3.43155869213	2.80017548114e-07
5.43638	3.43130212243	3.48279637062e-07
5.57583	3.43105788848	5.88192700392e-07
5.71887	3.43082544804	7.69737190924e-07
5.86557	3.4306040258	8.0483323048e-07
6.01603	3.43039281909	1.00372097224e-06
6.17035	3.43019162137	1.44318470647e-06
6.32863	3.42999962421	1.85085918456e-06
6.49097	3.42981528446	2.0178153211e-06
6.65748	3.42963544198	4.33907466712e-06
6.82826	3.42946403636	2.13598856427e-05
7.00342	3.42932865151	2.73731899259e-05
7.18307	3.42917792105	2.25321626958e-05
7.36733	3.42903731015	2.25851995186e-05
7.55631	3.42889579982	2.6719461394e-05
7.75015	3.42877621688	3.38999285886e-05
7.94895	3.42865532666	2.46415425861e-05
8.15286	3.42852675503	2.05525864332e-05
8.36199	3.42839872263	3.23115641491e-05
8.5765	3.4282904497	5.20693902344e-05
8.7965	3.42819301101	7.5582333901e-05
9.02215	3.4281243524	8.4398425253e-05
9.25358	3.4280468456	6.59233483645e-05
9.49095	3.42794426427	4.74086554539e-05
9.73442	3.42783109388	4.92551379001e-05
9.98412	3.42772517728	7.49093786102e-05
10.2402	3.42764326997	0.000121281024483
10.5029	3.42759598209	0.000140865266058
10.7723	3.42751290897	0.000154414862724
11.0487	3.42745685831	0.000213955811526
11.3321	3.4274525812	0.000235770496398
11.6228	3.42743971619	0.000211426138168
11.9209	3.42735782724	0.000171359449892
12.2267	3.42728976624	0.000236028435981
12.5404	3.4272420054	0.000207666070606
12.862	3.42720315474	0.000250435943822
13.192	3.42716406953	0.000279916209405
13.5304	3.4271689823	0.000364155422874
13.8775	3.42726624873	0.000273133749174
14.2334	3.42715404857	0.000121006463932
14.5986	3.42702454909	0.000138618618899
14.973	3.42691332783	0.000148541771721
15.3571	3.42677812738	0.000168546967821
15.7511	3.42650513188	0.000214489330231
16.1551	3.42642591965	0.00122379956248
16.5695	3.42737026624	0.00116715047712
16.9946	3.42740876331	0.00052151792155
17.4305	3.42719252829	0.000432643865676
17.8776	3.42719980272	0.000466029271524
18.3362	3.42719763073	0.00041910116088
18.8066	3.4271722478	0.000381363563581
19.289	3.42716234981	0.000367378874454
19.7838	3.4271636628	0.000341070252782
20.2913	3.42715675328	0.000317424234071
20.8118	3.42716431619	0.000278991278992
21.3457	3.42714277636	0.000228536707773
21.8932	3.42711191454	0.00019600760145
22.4548	3.42708129027	0.00017196652752
23.0308	3.42705205261	0.00015172049196
23.6216	3.4270208188	0.000134938914079
24.2276	3.42698907095	0.00012393173022
24.8491	3.42695838936	0.00011773542157
25.4865	3.4269276525	0.000116437067208
26.1403	3.4268986973	0.000129118000285
26.8108	3.42689612406	0.000135752760466
27.4986	3.42688335843	0.000131735970297
28.2039	3.42686891557	0.000130315931395
28.9274	3.42685482618	0.000130212769942
29.6695	3.42684097458	0.000131615817545
30.4306	3.42682913895	0.000134452600837
31.2112	3.42681542505	0.000139099000549
32.0118	3.42681399195	0.000152803894648
32.8329	3.42681441068	0.000144874164644
33.6752	3.42680584783	0.000142885065152
34.539	3.42679841096	0.000142863441303
35.425	3.42679157956	0.000143261963299
36.3337	3.42678536891	0.0001437549261
37.2658	3.42677906735	0.000144303218733
38.2217	3.42677307485	0.000145706821168
39.2021	3.4267680079	0.000146734555562
40.2078	3.42676187283	0.00014816527084
41.2392	3.4267572717	0.000150003336879
42.297	3.42675050699	0.000151746549147
43.382	3.42674471434	0.000156599586075
44.4949	3.42674091298	0.000161933607231
45.6362	3.42673824297	0.000167255273531
46.8069	3.42673630327	0.000172564793676
48.0076	3.42673488329	0.000177992462752
49.2391	3.42673368036	0.000184081351161
50.5022	3.42673432049	0.000190878433997
51.7976	3.4267358211	0.000197748532445
53.1263	3.4267389029	0.000204505440032
54.4891	3.42674288159	0.000211133698032
55.8869	3.42674840395	0.000217581500915
57.3205	3.42675481248	0.000223738803063
58.7909	3.42676271763	0.000229501744787
60.299	3.42677198817	0.000234878796396
61.8458	3.42678265505	0.000240756293627
63.4322	3.42679853094	0.00024864880191
65.0594	3.42682638871	0.000248406962362
66.7283	3.42685135881	0.000227648622048
68.44	3.42685577839	0.000200772943926
70.1956	3.42685061559	0.00018515465707
71.9963	3.42684564692	0.000174914868155
73.8431	3.42683810715	0.000168751743983
75.7373	3.42683085766	0.000168980267631
77.6801	3.42682748262	0.000173009547868
79.6728	3.42682804265	0.000183072571374
81.7165	3.42684186199	0.000193652281239
83.8127	3.42686506576	0.000191286642694
85.9627	3.42688328271	0.000174615753703
88.1678	3.42688737144	0.000154306303731
90.4294	3.4268862159	0.000138035531325
92.7491	3.426881412	0.0001266823703
95.1283	3.42687553488	0.000118666461623
97.5686	3.42687159964	0.000112656654806
100.071	3.4268665355	0.000107910633125
102.638	3.42686408706	0.000104025622366
105.271	3.4268619967	0.000100758043639
107.972	3.42685980415	9.79456105918e-05
110.741	3.42685853898	9.54767510639e-05
113.582	3.42685418187	9.32736660898e-05
116.496	3.42685187931	9.12788047908e-05
119.484	3.4268528812	8.94459049976e-05
122.549	3.4268496251	8.77344364004e-05
125.693	3.42684989869	8.6106206848e-05
128.917	3.42684955036	8.45269447132e-05
132.224	3.42684812331	8.29723608297e-05
135.616	3.42684807801	8.14392999852e-05
139.094	3.4268465545	7.99541184331e-05
142.663	3.42684418817	7.8567526084e-05
146.322	3.42684773086	7.73345777974e-05
150.076	3.4268394819	7.62915242495e-05
153.925	3.42684873821	7.54414634413e-05
157.874	3.42683769812	7.47609303842e-05
161.923	3.42684926241	7.42110520587e-05
166.077	3.4268442945	7.37554141465e-05
170.337	3.42683945615	7.33649912257e-05
174.707	3.42684181077	7.30210034426e-05
179.188	3.42683991777	7.27129527265e-05
183.785	3.42683862827	7.24349559223e-05
188.499	3.4268420464	7.21838182761e-05
193.335	3.42684394819	7.19578459233e-05
198.294	3.42683787402	7.17559255413e-05
203.381	3.42682942491	7.15769543786e-05
208.598	3.42683380954	7.14197683146e-05
213.949	3.42683317187	7.12839805714e-05
219.437	3.42685474449	7.11683272564e-05
225.066	3.42683980282	7.10733755019e-05
230.839	3.42683239595	7.09975891228e-05
236.761	3.42682046641	7.09406205766e-05
242.834	3.42684461838	7.09010505471e-05
249.063	3.42682092093	7.08800546803e-05
255.452	3.42685052061	7.08749992053e-05
262.005	3.42684437345	7.08872083173e-05
268.726	3.42684814748	7.0915248568e-05
275.619	3.42687092776	7.09584772501e-05
282.69	3.42683876236	7.10180124925e-05
289.941	3.42683305578	7.10918023615e-05
297.379	3.42684310949	7.11797530098e-05
305.007	3.42682701513	7.12824754708e-05
