Material: main / Si / Franta-150K
Optical constants. D. Franta, A. Dubroka, C. Wang, A. Giglia, J. Vohánka, P. Franta, I. Ohlídal. Temperature-dependent dispersion model of float zone crystalline silicon, Appl. Surf. Sci. 421, 405-419 (2017) (Numerical data kindly provided by Daniel Franta)
Comments: Float zone c-Si; Heterogenous data processing combining ellipsometric and spectrophotometric measurements with refractive index determined in B. J. Frey, D. B. Leviton, T. J. Madison. Temperature-dependent refractive index of silicon and germanium, Proc. SPIE 6273, 62732J (2006). Numerical procedures updated in D. Franta, P. Franta, J. Vohánka, M. Čermák, I. Ohlídal. Determination of thicknesses and temperatures of crystalline silicon wafers from optical measurements in the far infrared region, J. Appl. Phys. 123, 185707 (2018). Temperature 150 K."
Conditions: {"temperature": 150}
wavelength (um)	n	k
0.0309963	0.916868569296	0.0109300589233
0.0317914	0.911912647588	0.0118636120427
0.0326069	0.906688392673	0.0128783231071
0.0334434	0.901181205647	0.0139812815288
0.0343012	0.895374027157	0.0151802010218
0.0351811	0.889240131234	0.0164836075374
0.0360836	0.882751063394	0.0179007997663
0.0370092	0.875943088043	0.0194404434446
0.0379586	0.86875372238	0.0211139179288
0.0389323	0.861150938664	0.0229329414735
0.039931	0.853120660669	0.0249096687118
0.0409553	0.844625426676	0.0270578167549
0.0420059	0.83566737455	0.0293908178363
0.0430834	0.826179148569	0.0319254122003
0.0441886	0.816146669432	0.0346776843582
0.0453221	0.805513223856	0.0376665836263
0.0464847	0.794254130236	0.0409110394352
0.0476771	0.782308830116	0.0444331242287
0.0489001	0.769611874435	0.0482571571747
0.0501545	0.756115338556	0.0524085415351
0.0514411	0.741723910131	0.0569184312575
0.0527606	0.726360962785	0.0618203703397
0.054114	0.709921130736	0.0671547975986
0.0555022	0.692218212479	0.072977084077
0.0569259	0.673114308646	0.0793491803472
0.0583862	0.652348458094	0.086370625021
0.0598839	0.629588490441	0.0941780659253
0.06142	0.604295931935	0.102993907864
0.0629956	0.575457753586	0.113457979483
0.0646115	0.541849227403	0.128060136773
0.0662689	0.506114509599	0.151523678229
0.0679688	0.476379864645	0.182560568866
0.0697124	0.453020368656	0.211542043522
0.0715006	0.427251423616	0.236553759163
0.0733348	0.395509587867	0.26371906123
0.0752159	0.360044798531	0.297622207288
0.0771454	0.324336595694	0.339953046118
0.0791243	0.291984485126	0.390504883746
0.081154	0.266047929251	0.446842478019
0.0832357	0.246692788612	0.504881896331
0.0853709	0.231270810762	0.563124202402
0.0875608	0.218238920757	0.621575691383
0.0898069	0.205414890902	0.682524275524
0.0921107	0.196171378507	0.749382469561
0.0944735	0.194956372422	0.819200256183
0.0968969	0.200810388203	0.887334790844
0.0993825	0.210503449107	0.952636499904
0.101932	0.222139692373	1.0162466967
0.104547	0.235407555364	1.07953218917
0.107228	0.250797273004	1.14340584496
0.109979	0.26921676875	1.20851676769
0.1128	0.292773990472	1.27530614042
0.115694	0.325861825661	1.34143889705
0.118662	0.369742977527	1.39636768214
0.121705	0.407765817761	1.43139363073
0.124827	0.426172329303	1.46589402782
0.128029	0.437803727491	1.51260417533
0.131314	0.454246571312	1.56858002248
0.134682	0.476724256272	1.62568597545
0.138137	0.502320313852	1.68157971679
0.14168	0.528793568343	1.73493448
0.145315	0.551108230755	1.78787617362
0.149042	0.572272744275	1.84868033861
0.152866	0.602720568617	1.91281454691
0.156787	0.637335735371	1.96770885884
0.160809	0.660096831123	2.0167933269
0.164934	0.670538410518	2.0789256772
0.169165	0.685370122441	2.15877458034
0.173504	0.711332417696	2.24745507436
0.177955	0.747177411425	2.33884282167
0.18252	0.788004523536	2.43709402316
0.187202	0.850512676984	2.52964949787
0.192004	0.90896294145	2.61712128352
0.196929	0.969583750428	2.70652392544
0.201981	1.03344977059	2.798745801
0.207162	1.10141301075	2.89468664278
0.212476	1.17412605931	2.99577949215
0.217926	1.25242826401	3.10689663241
0.223517	1.35594726003	3.24492248871
0.22925	1.55605963408	3.34487908388
0.235131	1.68007511603	3.27457664937
0.241163	1.61212138023	3.30818915941
0.247349	1.58683528714	3.48896843121
0.253694	1.60091314472	3.71806070766
0.260202	1.62279207782	4.04894554079
0.266876	1.77754859962	4.59018062346
0.273722	2.35257519989	5.18897580533
0.280744	3.21962554062	5.44856372313
0.287945	4.39871180054	5.40323017418
0.295332	5.0836601916	4.42656189765
0.302907	5.07812325318	3.75692952791
0.310678	4.99001901492	3.44990079428
0.318647	4.99915195362	3.30641001082
0.326821	5.08623936426	3.20279771294
0.335205	5.2156806337	3.12224026191
0.343803	5.39614357927	3.10415576636
0.352622	5.83402065559	3.22184214492
0.361668	6.93717934598	2.71843069264
0.370945	7.01999496004	1.31789139427
0.380461	6.41430468855	0.536920683447
0.39022	5.83993576137	0.26591491847
0.40023	5.46148812578	0.181262583045
0.410497	5.19743261829	0.131076650095
0.421027	4.98951072521	0.0946035650028
0.431827	4.81772186016	0.0698745717327
0.442904	4.67352835458	0.0543458266499
0.454266	4.55166936307	0.0451297810113
0.465918	4.44806524828	0.0397190985257
0.47787	4.35927470332	0.0362669899152
0.490128	4.28238455574	0.0335951746779
0.502701	4.21499790457	0.031073695503
0.515596	4.15521678469	0.028458049393
0.528822	4.10159396858	0.0257316335619
0.542388	4.05305614946	0.0229809532675
0.556301	4.00881627329	0.0203144657076
0.570571	3.9682910234	0.0178213977946
0.585207	3.93103590209	0.0155585774569
0.600219	3.89669854514	0.0135524476142
0.615616	3.86498884502	0.0118068355995
0.631408	3.8356605162	0.0103112302188
0.647605	3.80850011935	0.00904738030362
0.664217	3.78332085264	0.00799370315331
0.681255	3.75995879119	0.0071276479684
0.698731	3.73827054131	0.00642622955292
0.716655	3.71813176006	0.00586475303108
0.735038	3.69943480495	0.00541357546053
0.753893	3.68208381843	0.00503313559529
0.773232	3.66598446015	0.00466958716036
0.793067	3.65102660811	0.0042581194494
0.813411	3.63706865711	0.00374407142502
0.834276	3.62394629097	0.00311866325909
0.855677	3.61151609417	0.00243607690026
0.877627	3.59969803393	0.00178253415336
0.90014	3.58847259373	0.00122557338346
0.92323	3.57784513696	0.000791681663414
0.946913	3.56781680893	0.000475819749183
0.971203	3.55837564328	0.00025905049726
0.996116	3.54949902359	0.000120342008947
1.02167	3.54115904522	4.16091345254e-05
1.04788	3.53332763209	8.87807421463e-06
1.07476	3.52598344518	3.55805554202e-06
1.10233	3.51908496327	1.41196816257e-06
1.1306	3.51259276049	3.6463794433e-07
1.1596	3.50647674079	8.04907281623e-08
1.18935	3.50071074051	4.32924100859e-08
1.21986	3.49527107598	2.38583209567e-08
1.25115	3.49013640966	1.33634481854e-08
1.28325	3.48528730996	7.60463416198e-09
1.31616	3.48070592281	4.39494141249e-09
1.34993	3.47637580988	2.57856995343e-09
1.38455	3.47228176922	1.53529801704e-09
1.42007	3.46840966579	9.27320544756e-10
1.4565	3.46474639461	5.6796463445e-10
1.49386	3.46127972881	3.52604783923e-10
1.53218	3.45799828108	2.2178653533e-10
1.57148	3.45489237927	1.41266589591e-10
1.6118	3.45195014205	9.10617615614e-11
1.65314	3.44916326801	5.93600807944e-11
1.69555	3.44652203589	3.90918797825e-11
1.73904	3.4440202133	2.59738799889e-11
1.78365	3.44164915204	1.73799837378e-11
1.82941	3.43940168295	1.16812907096e-11
1.87633	3.43727100629	7.85593208316e-12
1.92446	3.43525078978	5.25572290528e-12
1.97383	3.43333502568	3.46504644015e-12
2.02446	3.4315180812	2.21458124795e-12
2.07639	3.42979466089	1.32799484016e-12
2.12966	3.42815975822	6.88663709934e-13
2.18429	3.42660865261	2.18685086519e-13
2.24032	3.42513690115	5.95089374417e-14
2.29779	3.4237403219	4.7802418623e-14
2.35673	3.42241493074	3.85797146709e-14
2.41718	3.42115700162	3.12805900868e-14
2.47919	3.4199630016	2.54778669426e-14
2.54279	3.41882957092	2.08443781684e-14
2.60801	3.41775359643	1.71284580031e-14
2.67491	3.41673205623	1.41356871816e-14
2.74353	3.41576215337	1.17152351101e-14
2.81391	3.41484119663	9.74960104019e-15
2.88609	3.41396667821	8.1468741961e-15
2.96012	3.41313620874	6.83487159563e-15
3.03606	3.41234751343	5.75667941316e-15
3.11394	3.41159845517	4.86724849702e-15
3.19382	3.41088700933	4.13078481222e-15
3.27574	3.41021123953	3.51874118564e-15
3.35977	3.40956934467	3.00826613467e-15
3.44596	3.40895957554	2.58100119594e-15
3.53435	3.40838031905	2.22214497325e-15
3.62502	3.40783000561	1.91972227803e-15
3.718	3.40730716659	1.66401117431e-15
3.81338	3.406810428	1.447092415e-15
3.9112	3.40633844125	1.26249386567e-15
4.01153	3.40588997156	1.10490883517e-15
4.11443	3.40546381623	9.69972378728e-16
4.21998	3.40505885211	8.54082910606e-16
4.32823	3.40467399619	7.54259597716e-16
4.43925	3.40430824017	6.68027909659e-16
4.55313	3.40396060951	5.93328460427e-16
4.66992	3.40363019165	4.71625807396e-14
4.78972	3.40331611143	2.12883138536e-10
4.91258	3.40301752262	2.44939307542e-09
5.0386	3.4027336058	2.60473567208e-08
5.16785	3.40246375891	1.39839046297e-07
5.30042	3.40220716683	1.58628827933e-07
5.43638	3.40196308414	2.02502874953e-07
5.57583	3.40173095838	3.32761258351e-07
5.71887	3.40151022307	3.95322535845e-07
5.86557	3.40130005586	4.07201686615e-07
6.01603	3.401099916	5.12627402485e-07
6.17035	3.40090931366	7.10863490289e-07
6.32863	3.40072757072	8.50501290415e-07
6.49097	3.40055330012	1.06008099824e-06
6.65748	3.40038442364	3.45125666121e-06
6.82826	3.40022682725	1.70266675584e-05
7.00342	3.40009245285	1.6439511769e-05
7.18307	3.39995041994	1.46930680512e-05
7.36733	3.39981709513	1.38111554542e-05
7.55631	3.3996862177	1.7752833688e-05
7.75015	3.39957130763	2.00096511576e-05
7.94895	3.39945507453	1.44616424954e-05
8.15286	3.39933792638	1.33400863377e-05
8.36199	3.39922537553	2.10320114121e-05
8.5765	3.39912517348	3.0762177784e-05
8.7965	3.39903357921	4.33320659155e-05
9.02215	3.39895689165	4.54833741636e-05
9.25358	3.39887554249	3.36398098199e-05
9.49095	3.39878066883	2.3752475347e-05
9.73442	3.39867826556	2.94135399048e-05
9.98412	3.39858807245	5.61151199894e-05
10.2402	3.39852353045	8.95160467909e-05
10.5029	3.39847320528	9.86997035198e-05
10.7723	3.39840251509	0.000115251105154
11.0487	3.39836042453	0.000155517503308
11.3321	3.39835123366	0.000163519527537
11.6228	3.39833150472	0.000130083990102
11.9209	3.39824663072	9.60433917559e-05
12.2267	3.39820552857	0.000141862054014
12.5404	3.3981400472	0.000120446055594
12.862	3.39810097826	0.000141992700353
13.192	3.39805871725	0.000165868622891
13.5304	3.39807652828	0.000225547200526
13.8775	3.39811377004	0.000145245317708
14.2334	3.39801099881	5.98679589826e-05
14.5986	3.39792890781	7.24138806266e-05
14.973	3.39785262408	8.06452884842e-05
15.3571	3.39776232466	9.26215006435e-05
15.7511	3.39757243565	0.000118916805805
16.1551	3.39763213218	0.000695123112781
16.5695	3.39813869716	0.000530691846617
16.9946	3.39804755029	0.000244822075849
17.4305	3.39792945153	0.000228603122386
17.8776	3.3979396153	0.00023292868684
18.3362	3.39792621838	0.000204802817835
18.8066	3.39790301348	0.000183711114042
19.289	3.39788462738	0.000170946313982
19.7838	3.39787234839	0.000158997755297
20.2913	3.39786160516	0.00014637565594
20.8118	3.39785346516	0.000124329376252
21.3457	3.39783144048	9.9884094004e-05
21.8932	3.39780746002	8.64516371021e-05
22.4548	3.39778632512	7.48113336708e-05
23.0308	3.3977641645	6.40534851741e-05
23.6216	3.39774132089	5.64794586023e-05
24.2276	3.39771938286	5.19998903874e-05
24.8491	3.39769881849	4.96432554181e-05
25.4865	3.39767873271	4.95317220387e-05
26.1403	3.3976614824	5.72628266796e-05
26.8108	3.39765602636	5.75308629607e-05
27.4986	3.39764503176	5.49974648472e-05
28.2039	3.39763378025	5.3587599458e-05
28.9274	3.39762295867	5.27432217264e-05
29.6695	3.3976125032	5.25298559786e-05
30.4306	3.39760307851	5.2652243274e-05
31.2112	3.3975932458	5.38616585907e-05
32.0118	3.39758866751	5.67491042564e-05
32.8329	3.39758270403	5.37582884951e-05
33.6752	3.39757543917	5.28373371928e-05
34.539	3.39756876325	5.23595196996e-05
35.425	3.39756240881	5.19842821745e-05
36.3337	3.39755662432	5.16294452667e-05
37.2658	3.39755082848	5.13170910735e-05
38.2217	3.39754545328	5.1304306838e-05
39.2021	3.39754055706	5.10574520962e-05
40.2078	3.3975355257	5.10714978625e-05
41.2392	3.39753106206	5.09670532996e-05
42.297	3.39752612234	5.10753255308e-05
43.382	3.39752178219	5.18968591711e-05
44.4949	3.39751793143	5.27716636877e-05
45.6362	3.39751446137	5.36268830145e-05
46.8069	3.39751138501	5.44754481288e-05
48.0076	3.39750839702	5.540150211e-05
49.2391	3.39750543377	5.66691540634e-05
50.5022	3.3975033225	5.82182516092e-05
51.7976	3.39750143237	5.97826824544e-05
53.1263	3.39750027519	6.13082048942e-05
54.4891	3.39749928718	6.27917477095e-05
55.8869	3.39749908764	6.42179505815e-05
57.3205	3.39749887091	6.55578394502e-05
58.7909	3.39749929249	6.67873592134e-05
60.299	3.39750024142	6.7923894606e-05
61.8458	3.39750147444	6.92897002713e-05
63.4322	3.39750415109	7.11851924577e-05
65.0594	3.39751026048	7.03810773501e-05
66.7283	3.39751501225	6.42955893222e-05
68.44	3.39751405109	5.7415605949e-05
70.1956	3.3975121012	5.36394297638e-05
71.9963	3.39750979356	5.07000359928e-05
73.8431	3.39750726306	4.86709964746e-05
75.7373	3.39750382568	4.81007547409e-05
77.6801	3.39750234343	4.85214720317e-05
79.6728	3.39750111776	5.0166766969e-05
81.7165	3.39750270428	5.16025138142e-05
83.8127	3.39750604815	5.05566420034e-05
85.9627	3.3975086011	4.72623191818e-05
88.1678	3.39750708703	4.36576403411e-05
90.4294	3.39750705334	4.08637052818e-05
92.7491	3.39750528635	3.89018765479e-05
95.1283	3.3975028257	3.74838161893e-05
97.5686	3.39750198333	3.63950151344e-05
100.071	3.39749944654	3.55183382677e-05
102.638	3.39749920506	3.4789008675e-05
105.271	3.39749908955	3.41668481145e-05
107.972	3.39749850714	3.36247640294e-05
110.741	3.3974986653	3.3144121942e-05
113.582	3.39749549994	3.27119429232e-05
116.496	3.39749410849	3.23185111561e-05
119.484	3.39749601039	3.19559618653e-05
122.549	3.39749344149	3.16174402249e-05
125.693	3.39749438113	3.12964649041e-05
128.917	3.39749460342	3.09874089201e-05
132.224	3.39749359338	3.06864774075e-05
135.616	3.39749408826	3.03934739475e-05
139.094	3.39749305603	3.01129398859e-05
142.663	3.39749137146	2.98528912729e-05
146.322	3.39749559849	2.9621407201e-05
150.076	3.39748789214	2.94232698257e-05
153.925	3.39749793923	2.925775444e-05
157.874	3.39748730321	2.91206540174e-05
161.923	3.39749946604	2.90053735988e-05
166.077	3.39749481239	2.89064754964e-05
170.337	3.39749037822	2.88195300083e-05
174.707	3.39749289462	2.87417676482e-05
179.188	3.39749116887	2.86717448497e-05
183.785	3.39748998461	2.86085963191e-05
188.499	3.39749343608	2.85518369379e-05
193.335	3.3974954329	2.85012434201e-05
198.294	3.39748929391	2.84566758312e-05
203.381	3.39748068664	2.84179275793e-05
208.598	3.39748505202	2.83847310998e-05
213.949	3.39748437922	2.83571115946e-05
219.437	3.39750599864	2.83347235609e-05
225.066	3.39749067426	2.83179471954e-05
230.839	3.39748306474	2.83062960558e-05
236.761	3.3974708213	2.82997570485e-05
242.834	3.39749499888	2.82978694275e-05
249.063	3.39747086962	2.83012180819e-05
255.452	3.39750036448	2.83088326653e-05
262.005	3.39749396278	2.83213394624e-05
268.726	3.39749756391	2.83382409967e-05
275.619	3.39752033131	2.83593529237e-05
282.69	3.39748742851	2.83852027757e-05
289.941	3.39748134245	2.84150181633e-05
297.379	3.39749123766	2.84488209863e-05
305.007	3.39747446446	2.84869174556e-05
