Material: main / Si / Franta-300K
Optical constants. D. Franta, A. Dubroka, C. Wang, A. Giglia, J. Vohánka, P. Franta, I. Ohlídal. Temperature-dependent dispersion model of float zone crystalline silicon, Appl. Surf. Sci. 421, 405-419 (2017) (Numerical data kindly provided by Daniel Franta)
Comments: Float zone c-Si; Heterogenous data processing combining ellipsometric and spectrophotometric measurements with refractive index determined in B. J. Frey, D. B. Leviton, T. J. Madison. Temperature-dependent refractive index of silicon and germanium, Proc. SPIE 6273, 62732J (2006). Numerical procedures updated in D. Franta, P. Franta, J. Vohánka, M. Čermák, I. Ohlídal. Determination of thicknesses and temperatures of crystalline silicon wafers from optical measurements in the far infrared region, J. Appl. Phys. 123, 185707 (2018). Temperature 300 K."
Conditions: {"temperature": 300}
wavelength (um)	n	k
0.0309963	0.91663318364	0.0104620014304
0.0317914	0.911642429098	0.0113572152031
0.0326069	0.906376533536	0.0123307498999
0.0334434	0.900825028384	0.0133895022048
0.0343012	0.894969146851	0.0145410799769
0.0351811	0.888784728539	0.0157938510784
0.0360836	0.882268606344	0.0171565249535
0.0370092	0.875353115051	0.0186398392467
0.0379586	0.868078980998	0.0202532062475
0.0389323	0.860378437123	0.022009195121
0.039931	0.852224106822	0.0239206215393
0.0409553	0.8436135685	0.0260006412444
0.0420059	0.834489107296	0.0282651680755
0.0430834	0.824833440768	0.0307302437715
0.0441886	0.814613058754	0.0334137926871
0.0453221	0.804150275512	0.0363192004283
0.0464847	0.792148721582	0.0395255723391
0.0476771	0.77997254595	0.0429924636101
0.0489001	0.767043242951	0.0467703645367
0.0501545	0.752822459336	0.0509216378018
0.0514411	0.738496710294	0.0553968896468
0.0527606	0.722648631839	0.0603289481076
0.054114	0.70565217192	0.0657358582551
0.0555022	0.687345034013	0.0716830086004
0.0569259	0.667483810794	0.0782597934204
0.0583862	0.64609187742	0.0855528731723
0.0598839	0.622496802363	0.09377032297
0.06142	0.596132869375	0.103185384944
0.0629956	0.566326722475	0.114452117203
0.0646115	0.531403159357	0.130318109335
0.0662689	0.494302246684	0.155716784607
0.0679688	0.46420699099	0.188913920046
0.0697124	0.440593060261	0.220197453955
0.0715006	0.414664552894	0.247913174962
0.0733348	0.383207483752	0.278441749502
0.0752159	0.349106019663	0.315996533439
0.0771454	0.315735303163	0.361939867874
0.0791243	0.286604142002	0.415587663628
0.081154	0.264634929487	0.475068515891
0.0832357	0.251095785886	0.536223562307
0.0853709	0.244010003513	0.595204549597
0.0875608	0.239479276935	0.650428480007
0.0898069	0.232629769631	0.705046368564
0.0921107	0.226039971017	0.764819849412
0.0944735	0.225184026748	0.828485477466
0.0968969	0.230338048074	0.891788378167
0.0993825	0.23892064257	0.953134998624
0.101932	0.249232679025	1.01326641213
0.104547	0.260928625443	1.07365743489
0.107228	0.274552883043	1.13500594389
0.109979	0.291033444348	1.19813933093
0.1128	0.312667659922	1.26357517496
0.115694	0.34423884775	1.32891474097
0.118662	0.387278811304	1.38322224069
0.121705	0.425257453965	1.4174413378
0.124827	0.443671570393	1.44940545605
0.128029	0.454350782278	1.49382610348
0.131314	0.469573865902	1.54703751719
0.134682	0.489995858616	1.6012644966
0.138137	0.512790837091	1.65449523099
0.14168	0.535752436108	1.70551577187
0.145315	0.553816289862	1.75676814727
0.149042	0.57044184522	1.81675312243
0.152866	0.596074480397	1.88050516388
0.156787	0.625088832574	1.93575403323
0.160809	0.641375581532	1.98687436359
0.164934	0.645363262673	2.05362217158
0.169165	0.654780434842	2.14176282226
0.173504	0.682055964085	2.24273415643
0.177955	0.727360435312	2.33958837928
0.18252	0.775200056441	2.43495490128
0.187202	0.83661536756	2.52565365899
0.192004	0.895264582564	2.61273622036
0.196929	0.955769132898	2.70231790458
0.201981	1.01958315566	2.7951659017
0.207162	1.0879019232	2.89208335791
0.212476	1.16192015017	2.99418308233
0.217926	1.24415606814	3.10486438272
0.223517	1.35055225491	3.22805943493
0.22925	1.50610253202	3.32241992066
0.235131	1.62992550367	3.33039896039
0.241163	1.63698141199	3.365983865
0.247349	1.63218561987	3.51769902074
0.253694	1.67290496526	3.73357619291
0.260202	1.74381059818	4.01905875125
0.266876	1.91245619442	4.43355021409
0.273722	2.34731526054	4.90441512634
0.280744	3.0298936604	5.21499631635
0.287945	4.00970229326	5.31055125129
0.295332	4.87052116355	4.60423566382
0.302907	5.01345879497	3.92111592954
0.310678	5.01126020568	3.54889754191
0.318647	5.03836909723	3.32264343259
0.326821	5.10120296546	3.15420283756
0.335205	5.18592299523	3.0247870916
0.343803	5.30635642345	2.94913314153
0.352622	5.53594846621	2.95404878506
0.361668	6.16352244441	2.90567365837
0.370945	6.88577011619	1.99245006518
0.380461	6.54216024522	0.899735065084
0.39022	5.98704478667	0.504313096686
0.40023	5.59932888636	0.332658939858
0.410497	5.31178290221	0.243644345048
0.421027	5.09289165963	0.188242927137
0.431827	4.91651610143	0.147749404514
0.442904	4.76831352085	0.117452658849
0.454266	4.64140641859	0.0953100316443
0.465918	4.53190319474	0.0793970551955
0.47787	4.43698979659	0.0678735973998
0.490128	4.35429456006	0.0591994770681
0.502701	4.28172664353	0.0522458419065
0.515596	4.21747750821	0.0462944414019
0.528822	4.16004688528	0.0409606146531
0.542388	4.10824571717	0.0360839505207
0.556301	4.06116837431	0.0316252659191
0.570571	4.01813165913	0.0275920613265
0.585207	3.978619985	0.0239961621393
0.600219	3.94223466998	0.0208363888647
0.615616	3.90865285234	0.0180959662886
0.631408	3.8776078045	0.0157463252916
0.647605	3.84886989372	0.0137524162765
0.664217	3.82223916228	0.0120771447141
0.681255	3.7975398764	0.0106842219183
0.698731	3.77461855656	0.0095393387771
0.716655	3.75333849194	0.00860971481733
0.735038	3.73358422015	0.00786187265384
0.753893	3.71525509534	0.00725747418385
0.773232	3.69826152175	0.006747514662
0.793067	3.68251384997	0.00626762010972
0.813411	3.66790154852	0.00574206091258
0.834276	3.65427976804	0.00510646345346
0.855677	3.64147741682	0.00434495560501
0.877627	3.62934202775	0.00350830546845
0.90014	3.61778331075	0.00268485994842
0.92323	3.6067721038	0.00195104010082
0.946913	3.59631223751	0.00134663891785
0.971203	3.58640942897	0.000879130430456
0.996116	3.57706339334	0.000536992826476
1.02167	3.56826142929	0.000300733119325
1.04788	3.55998483076	0.000149829313985
1.07476	3.55221024605	6.62380527231e-05
1.10233	3.54491942447	3.18248773986e-05
1.1306	3.5380818938	1.39363858997e-05
1.1596	3.53165329342	4.10588955688e-06
1.18935	3.52560237599	3.41570879757e-07
1.21986	3.51990413696	8.47035201881e-08
1.25115	3.51453319154	5.11272463688e-08
1.28325	3.50946584753	3.1423168428e-08
1.31616	3.50468258589	1.96577810845e-08
1.34993	3.50016514885	1.25117866582e-08
1.38455	3.49589646423	8.09826665217e-09
1.42007	3.49186117088	5.32742501509e-09
1.4565	3.48804556053	3.55992729327e-09
1.49386	3.48443676199	2.41488399684e-09
1.53218	3.48102189001	1.66191487745e-09
1.57148	3.47778942326	1.15958924261e-09
1.6118	3.47472966414	8.19812053719e-10
1.65314	3.47183229325	5.86927481792e-10
1.69555	3.46908820366	4.25285214504e-10
1.73904	3.46648869	3.11742097408e-10
1.78365	3.4640253576	2.31078654327e-10
1.82941	3.46169118261	1.73160492709e-10
1.87633	3.45947875947	1.31157924281e-10
1.92446	3.45738130933	1.00415007455e-10
1.97383	3.45539265308	7.77225439012e-11
2.02446	3.45350694625	6.08451689946e-11
2.07639	3.45171850206	4.82101964385e-11
2.12966	3.45002230539	3.87006182305e-11
2.18429	3.44841320531	3.15159521567e-11
2.24032	3.4468866122	2.60777062451e-11
2.29779	3.44543832189	2.23539820376e-11
2.35673	3.44406356177	2.05428020339e-11
2.41718	3.44275938012	1.92762115372e-11
2.47919	3.44152147788	1.84538002818e-11
2.54279	3.44034643816	1.79990637835e-11
2.60801	3.43923094466	1.78538240188e-11
2.67491	3.43817221333	1.79740363928e-11
2.74353	3.43716650814	1.83266406727e-11
2.81391	3.43621211332	1.88871599008e-11
2.88609	3.43530584019	1.96379110137e-11
2.96012	3.43444538518	2.05666190738e-11
3.03606	3.43362779944	2.16653815096e-11
3.11394	3.43285176901	2.29298588925e-11
3.19382	3.43211441093	2.43586899103e-11
3.27574	3.43141423892	2.59530133952e-11
3.35977	3.43074918723	2.77161348386e-11
3.44596	3.43011730211	2.96532628238e-11
3.53435	3.42951732835	3.1771312476e-11
3.62502	3.42894704401	3.40787823261e-11
3.718	3.42840536323	3.65856401879e-11
3.81338	3.42789060604	3.93032776724e-11
3.9112	3.42740165047	4.22444643815e-11
4.01153	3.42693684917	4.5423348224e-11
4.11443	3.42649519427	4.88554479483e-11
4.21998	3.42607564018	5.2557682337e-11
4.32823	3.42567689697	5.65484086375e-11
4.43925	3.42529772282	6.08474647885e-11
4.55313	3.42493742686	6.54762153372e-11
4.66992	3.42459504995	7.04763391273e-11
4.78972	3.42426941495	2.60085749608e-10
4.91258	3.42395971369	3.12255837997e-09
5.0386	3.42366530453	2.61166871162e-08
5.16785	3.42338521901	1.96726410432e-07
5.30042	3.42311915305	2.32676863174e-07
5.43638	3.42286575754	2.93817602965e-07
5.57583	3.42262467199	4.95509917651e-07
5.71887	3.42239555784	6.27228978036e-07
5.86557	3.42217712907	6.54954907212e-07
6.01603	3.42196916093	8.25246413913e-07
6.17035	3.4217708788	1.17799191259e-06
6.32863	3.421581457	1.47985591922e-06
6.49097	3.42139978202	1.66277055658e-06
6.65748	3.42122301789	4.08043666732e-06
6.82826	3.4210560976	2.02477569481e-05
7.00342	3.42092033127	2.31248892533e-05
7.18307	3.42077185002	1.97495375574e-05
7.36733	3.42063318203	1.93613477359e-05
7.55631	3.42049488791	2.3804542019e-05
7.75015	3.42037680299	2.88333188297e-05
7.94895	3.42025644065	2.07689398325e-05
8.15286	3.42013092058	1.79150338592e-05
8.36199	3.42000787379	2.89291679917e-05
8.5765	3.41990205728	4.51204594971e-05
8.7965	3.4198068145	6.51895676486e-05
9.02215	3.41973495858	7.05772192587e-05
9.25358	3.41965473172	5.43059097942e-05
9.49095	3.41955418481	3.92705468941e-05
9.73442	3.4194443373	4.256986926e-05
9.98412	3.41934303036	6.88747025558e-05
10.2402	3.41926730575	0.00011152841957
10.5029	3.41921847809	0.000126379361576
10.7723	3.41913820781	0.000142100328055
11.0487	3.41908790134	0.000195867369438
11.3321	3.41908155652	0.000212380105492
11.6228	3.41906568993	0.000184178245564
11.9209	3.41898113983	0.000146297973163
12.2267	3.41892387013	0.000206854099426
12.5404	3.41886600062	0.000181015327318
12.862	3.41882899123	0.00021586460258
13.192	3.41878813583	0.000244236514797
13.5304	3.41880145422	0.000324001132398
13.8775	3.41887642534	0.00022965513201
14.2334	3.41876095799	0.000100693008939
14.5986	3.41864762678	0.00011803388153
14.973	3.41854564848	0.000128656805255
15.3571	3.41842157685	0.000146878692469
15.7511	3.41816388451	0.000189376770087
16.1551	3.41817706218	0.00107698750936
16.5695	3.41898292801	0.000972584746517
16.9946	3.41895322212	0.000436764121023
17.4305	3.41876815158	0.000377536754273
17.8776	3.41878087436	0.000399439129362
18.3362	3.41877573718	0.000357872684946
18.8066	3.41875121157	0.000325302404654
19.289	3.41873912782	0.000309903574705
19.7838	3.41873517631	0.000287742403095
20.2913	3.41872777502	0.000267825717444
20.8118	3.4187304478	0.0002326662431
21.3457	3.41870786717	0.000190386560392
21.8932	3.41867857931	0.000163482038588
22.4548	3.41865071798	0.000143556793159
23.0308	3.41862347019	0.000126046573249
23.6216	3.41859427793	0.00011199906712
24.2276	3.41856494893	0.000103064729765
24.8491	3.41853696812	9.81730345835e-05
25.4865	3.4185093634	9.75493782872e-05
26.1403	3.41848390832	0.000109868821482
26.8108	3.41848071796	0.00011390736806
27.4986	3.41846830285	0.000110561630095
28.2039	3.41845469106	0.000109344899443
28.9274	3.41844141661	0.00010922901415
29.6695	3.41842848999	0.000110428872646
30.4306	3.41841729468	0.000112666943832
31.2112	3.41840445704	0.00011691970163
32.0118	3.41840374603	0.000127699065469
32.8329	3.41840161186	0.000120792030559
33.6752	3.41839339468	0.000119311377468
34.539	3.41838632111	0.000119276340428
35.425	3.41837946815	0.00011955677187
36.3337	3.41837356502	0.000119902876506
37.2658	3.41836738323	0.000120310850691
38.2217	3.4183615896	0.000121455092098
39.2021	3.41835667112	0.000122181828848
40.2078	3.41835075607	0.00012341017219
41.2392	3.4183462261	0.000124723555573
42.297	3.4183400254	0.000126258925027
43.382	3.41833474022	0.000130233605783
44.4949	3.41833101591	0.000134522035068
45.6362	3.41832801444	0.000138791755442
46.8069	3.41832591666	0.000143049283256
48.0076	3.41832415876	0.000147422950274
49.2391	3.41832288289	0.000152395439371
50.5022	3.41832267801	0.000157943975826
51.7976	3.4183235509	0.000163532131929
53.1263	3.41832571907	0.000169021657352
54.4891	3.41832853344	0.000174400844046
55.8869	3.41833259405	0.000179623851888
57.3205	3.41833749823	0.000184598969211
58.7909	3.41834387234	0.000189243452575
60.299	3.41835114218	0.000193579126564
61.8458	3.4183597403	0.000198427178086
63.4322	3.41837256533	0.000204863549419
65.0594	3.41839589699	0.000203736304957
66.7283	3.4184152064	0.000185811099927
68.44	3.41841741548	0.000164014210413
70.1956	3.41841325523	0.000151712551898
71.9963	3.41840869848	0.000143258571872
73.8431	3.41840240641	0.000138299345094
75.7373	3.4183961748	0.000138403418993
77.6801	3.41839350261	0.000141640968223
79.6728	3.41839405657	0.000149779437912
81.7165	3.41840520526	0.000157731541929
83.8127	3.41842364539	0.000154937509428
85.9627	3.41843729584	0.000141185652363
88.1678	3.4184394809	0.000125126414676
90.4294	3.41843844426	0.000112461021975
92.7491	3.41843427952	0.000103634570456
95.1283	3.41842943506	9.73667586802e-05
97.5686	3.41842623234	9.26365816544e-05
100.071	3.4184218185	8.88808858502e-05
102.638	3.41841987012	8.57925908513e-05
105.271	3.41841854272	8.31843468692e-05
107.972	3.41841669887	8.09307896455e-05
110.741	3.41841588487	7.89456365289e-05
113.582	3.41841161287	7.71686487811e-05
116.496	3.41840944548	7.55550296906e-05
119.484	3.4184107718	7.40685727839e-05
122.549	3.41840765585	7.26774417163e-05
125.693	3.41840807713	7.13515800361e-05
128.917	3.41840800397	7.00642007563e-05
132.224	3.4184064658	6.87968085374e-05
135.616	3.4184066989	6.75480129469e-05
139.094	3.4184052489	6.63397864328e-05
142.663	3.41840303732	6.52125876002e-05
146.322	3.41840664679	6.42091084711e-05
150.076	3.41839865012	6.3356283076e-05
153.925	3.41840810257	6.26547469237e-05
157.874	3.41839730299	6.20848886938e-05
161.923	3.41840897115	6.16157485433e-05
166.077	3.41840389971	6.12190089549e-05
170.337	3.41839941922	6.08723387495e-05
174.707	3.41840171792	6.05614604386e-05
179.188	3.41839991386	6.02784461239e-05
183.785	3.41839857532	6.00188449095e-05
188.499	3.41840202535	5.97802085108e-05
193.335	3.41840409097	5.95612239444e-05
198.294	3.41839780882	5.9361016921e-05
203.381	3.41838938115	5.91786798073e-05
208.598	3.41839386758	5.90132573659e-05
213.949	3.41839310083	5.88644358544e-05
219.437	3.41841476145	5.87311581396e-05
225.066	3.4183997775	5.86138923376e-05
230.839	3.41839212817	5.85113581584e-05
236.761	3.41838026544	5.84232458494e-05
242.834	3.41840443661	5.83483730796e-05
249.063	3.41838056577	5.82876928108e-05
255.452	3.41841011745	5.82390057722e-05
262.005	3.41840394418	5.82033812074e-05
268.726	3.41840784559	5.8179610095e-05
275.619	3.4184306345	5.81671413639e-05
282.69	3.41839807185	5.81668695775e-05
289.941	3.41839228014	5.81770666483e-05
297.379	3.41840230119	5.81976303373e-05
305.007	3.41838587044	5.82290362949e-05
