Material: main / Si / Franta-20C
Optical constants. D. Franta, A. Dubroka, C. Wang, A. Giglia, J. Vohánka, P. Franta, I. Ohlídal. Temperature-dependent dispersion model of float zone crystalline silicon, Appl. Surf. Sci. 421, 405-419 (2017) (Numerical data kindly provided by Daniel Franta)
Comments: Float zone c-Si; Heterogenous data processing combining ellipsometric and spectrophotometric measurements with refractive index determined in B. J. Frey, D. B. Leviton, T. J. Madison. Temperature-dependent refractive index of silicon and germanium, Proc. SPIE 6273, 62732J (2006). Numerical procedures updated in D. Franta, P. Franta, J. Vohánka, M. Čermák, I. Ohlídal. Determination of thicknesses and temperatures of crystalline silicon wafers from optical measurements in the far infrared region, J. Appl. Phys. 123, 185707 (2018). Temperature 20 °C."
Conditions: {"temperature": 293}
wavelength (um)	n	k
0.0309963	0.916664002283	0.0104839413064
0.0317914	0.91167706945	0.0113809300883
0.0326069	0.906420484856	0.0123562994094
0.0334434	0.900869169639	0.0134171499006
0.0343012	0.895032216441	0.0145706786197
0.0351811	0.88884493403	0.0158258970766
0.0360836	0.882296389283	0.0171917732378
0.0370092	0.875440466337	0.0186766239628
0.0379586	0.868159238722	0.0202930262236
0.0389323	0.860461550282	0.022052001499
0.039931	0.852327196954	0.0239660911252
0.0409553	0.843732746158	0.0260489463984
0.0420059	0.834635424704	0.0283159791888
0.0430834	0.824985183781	0.0307843018378
0.0441886	0.814775358706	0.0334709168327
0.0453221	0.803672109564	0.0364087690001
0.0464847	0.792256278515	0.0395923487263
0.0476771	0.780013337771	0.0430665093064
0.0489001	0.766805033945	0.0468652233472
0.0501545	0.753516148781	0.0509587825682
0.0514411	0.73827384105	0.0555010283411
0.0527606	0.722656826206	0.0604183838369
0.054114	0.70575390556	0.0658183629791
0.0555022	0.687455206346	0.0717642075246
0.0569259	0.668008931941	0.0782900705612
0.0583862	0.646693961428	0.0855620889818
0.0598839	0.623022660978	0.0937742895861
0.06142	0.596732541915	0.103155353835
0.0629956	0.566564708535	0.114462903339
0.0646115	0.531963915857	0.130215027764
0.0662689	0.495011222602	0.155490567402
0.0679688	0.464828645472	0.188616309551
0.0697124	0.441103465465	0.219855076997
0.0715006	0.415098972219	0.247507034781
0.0733348	0.383798552031	0.27777892487
0.0752159	0.349539512328	0.315249921551
0.0771454	0.316173801975	0.360920651251
0.0791243	0.286903650906	0.414407628724
0.081154	0.264662721187	0.473922910894
0.0832357	0.250992189902	0.534841916668
0.0853709	0.243649227038	0.593861102845
0.0875608	0.23891256707	0.649105921396
0.0898069	0.231863316024	0.703857226043
0.0921107	0.225134539107	0.763749102626
0.0944735	0.224164417734	0.827640368852
0.0968969	0.22928636081	0.890992334222
0.0993825	0.237829761544	0.952468350754
0.101932	0.248111238976	1.01271927157
0.104547	0.25979844503	1.07315765348
0.107228	0.273405678293	1.13460128863
0.109979	0.289886228243	1.19775574536
0.1128	0.3115124361	1.26318277968
0.115694	0.343025372988	1.32855358636
0.118662	0.385968430541	1.38285048348
0.121705	0.423780721425	1.41708922902
0.124827	0.442008584086	1.44920779163
0.128029	0.452570273939	1.49375878842
0.131314	0.467688606611	1.54719108619
0.134682	0.488070478312	1.6016489245
0.138137	0.510873484562	1.6550989955
0.14168	0.533882629957	1.70631840492
0.145315	0.552020473789	1.75775450683
0.149042	0.568724183978	1.81787455197
0.152866	0.594437864454	1.88176537058
0.156787	0.623569776075	1.93716746162
0.160809	0.64003472179	1.98835107615
0.164934	0.644202498743	2.05501020317
0.169165	0.653651073979	2.14292426139
0.173504	0.680566920423	2.24359539599
0.177955	0.725183915199	2.34065012459
0.18252	0.772594019713	2.43693380772
0.187202	0.834505347865	2.52796581909
0.192004	0.893119223281	2.61529325698
0.196929	0.953596818926	2.70521433984
0.201981	1.01739645617	2.79847287173
0.207162	1.08572129826	2.89587202205
0.212476	1.15977490064	2.99854985087
0.217926	1.24205672163	3.10995894937
0.223517	1.34876713773	3.23443334987
0.22925	1.50621551714	3.32953622852
0.235131	1.63019794335	3.33577995471
0.241163	1.63499952844	3.37314634657
0.247349	1.63188049863	3.52838430162
0.253694	1.67567310687	3.74545841333
0.260202	1.74924814991	4.03124831676
0.266876	1.92084822947	4.44598897069
0.273722	2.35985403264	4.91573070958
0.280744	3.04344489126	5.22300606949
0.287945	4.03167102021	5.32081831047
0.295332	4.88974549067	4.59881119107
0.302907	5.0282688353	3.91839069573
0.310678	5.02752761341	3.54462839475
0.318647	5.05426669051	3.3150311425
0.326821	5.11533850608	3.14366209063
0.335205	5.1973724845	3.01189655663
0.343803	5.31355449301	2.93567208384
0.352622	5.54024453286	2.94629691504
0.361668	6.18635524257	2.90023379083
0.370945	6.89861712257	1.95012671751
0.380461	6.52471315451	0.874919701242
0.39022	5.97390296807	0.491434371091
0.40023	5.58739317744	0.324383259046
0.410497	5.30218337877	0.238572759048
0.421027	5.08525922455	0.184336725606
0.431827	4.9099580971	0.144341129728
0.442904	4.76236794854	0.114476335728
0.454266	4.63590843858	0.0927681383766
0.465918	4.5267962863	0.0772580522907
0.47787	4.43224582266	0.0660805413329
0.490128	4.34988412426	0.0576892096608
0.502701	4.27761717378	0.0509619085953
0.515596	4.21363277226	0.0451925862512
0.528822	4.1564337219	0.0400086435004
0.542388	4.10483713137	0.0352588656477
0.556301	4.0579398531	0.030909980402
0.570571	4.01506683319	0.0269727933569
0.585207	3.97570360873	0.0234609849939
0.600219	3.93945380266	0.0203745376242
0.615616	3.90599791211	0.0176976243942
0.631408	3.87506864297	0.0154026289018
0.647605	3.84643781233	0.01345546129
0.664217	3.81990573339	0.0118199764331
0.681255	3.79529782947	0.0104607667294
0.698731	3.7724598186	0.00934429581125
0.716655	3.75125773124	0.00843838454719
0.735038	3.73157552309	0.00770994951174
0.753893	3.7133133602	0.00712077072928
0.773232	3.69638091547	0.00662169293077
0.793067	3.68068849762	0.00614815014327
0.813411	3.66612370288	0.00562489321579
0.834276	3.65254172499	0.00498969389318
0.855677	3.6397701592	0.00423046420142
0.877627	3.62765969329	0.00340121260341
0.90014	3.61612382876	0.00259067963474
0.92323	3.60513712102	0.00187317519476
0.946913	3.59470437114	0.00128581252475
0.971203	3.5848310933	0.000834052814862
0.996116	3.57551477301	0.000505297435574
1.02167	3.5667434413	0.00027975498419
1.04788	3.55849541448	0.000137091418583
1.07476	3.55074924951	5.96590566741e-05
1.10233	3.5434855761	2.87116023151e-05
1.1306	3.53667143733	1.23346245512e-05
1.1596	3.53026409928	3.46681972057e-06
1.18935	3.52423310398	2.47921452704e-07
1.21986	3.51855292492	7.82307724489e-08
1.25115	3.51319807132	4.68818804343e-08
1.28325	3.5081461983	2.85994427513e-08
1.31616	3.50337683188	1.77536668579e-08
1.34993	3.4988719312	1.12105291383e-08
1.38455	3.49461546126	7.19744046999e-09
1.42007	3.49059136523	4.69600600326e-09
1.4565	3.48678645461	3.11202363565e-09
1.49386	3.48318713621	2.09348656978e-09
1.53218	3.47978140401	1.42872299728e-09
1.57148	3.47655766764	9.8856843928e-10
1.6118	3.47350654806	6.93064582437e-10
1.65314	3.47061659567	4.92015179137e-10
1.69555	3.46787953411	3.53473256079e-10
1.73904	3.46528659428	2.56834815258e-10
1.78365	3.46282953816	1.88638921493e-10
1.82941	3.46050130343	1.39980976034e-10
1.87633	3.45829476213	1.04899239673e-10
1.92446	3.45620265566	7.93557690441e-11
1.97383	3.45421890054	6.05850215995e-11
2.02446	3.45233809124	4.66726401687e-11
2.07639	3.45055425948	3.62799272384e-11
2.12966	3.44886223326	2.84615914054e-11
2.18429	3.4472571899	2.25439556737e-11
2.24032	3.44573446886	1.80427034334e-11
2.29779	3.44428932201	1.50514875602e-11
2.35673	3.44291832295	1.35723215541e-11
2.41718	3.4416172249	1.24960515028e-11
2.47919	3.4403821067	1.17450188752e-11
2.54279	3.43921002341	1.12599452102e-11
2.60801	3.43809709271	1.09955960684e-11
2.67491	3.4370410095	1.091751882e-11
2.74353	3.43603816752	1.09996046156e-11
2.81391	3.43508610431	1.12222333516e-11
2.88609	3.43418191454	1.15708801913e-11
2.96012	3.43332351171	1.20350493452e-11
3.03606	3.43250798322	1.26074714536e-11
3.11394	3.43173376522	1.32834800013e-11
3.19382	3.43099832171	1.40605498129e-11
3.27574	3.43029984071	1.49379330007e-11
3.35977	3.42963618477	1.59163910039e-11
3.44596	3.4290057856	1.69979851381e-11
3.53435	3.42840722044	1.81859239816e-11
3.62502	3.42783829393	1.94844546468e-11
3.718	3.42729795482	2.08987706951e-11
3.81338	3.42678448761	2.24349648648e-11
3.9112	3.42629677114	2.40999850611e-11
4.01153	3.42583309216	2.59016215185e-11
4.11443	3.42539262964	2.78484891479e-11
4.21998	3.42497394624	2.99500419909e-11
4.32823	3.42457593717	3.22165790197e-11
4.43925	3.42419772082	3.46592647728e-11
4.55313	3.4238384694	3.72901575016e-11
4.66992	3.42349691615	4.01425259525e-11
4.78972	3.42317196314	2.30913557878e-10
4.91258	3.42286314472	3.05308402469e-09
5.0386	3.42256918419	2.62648498984e-08
5.16785	3.42229014041	1.92804742462e-07
5.30042	3.42202456733	2.27358799428e-07
5.43638	3.42177202367	2.87563644678e-07
5.57583	3.42153140697	4.8450945324e-07
5.71887	3.42130299878	6.10691691979e-07
5.86557	3.42108496363	6.37531841345e-07
6.01603	3.42087754829	8.04064066854e-07
6.17035	3.42067968031	1.14632823475e-06
6.32863	3.42049096823	1.43603805724e-06
6.49097	3.42030970557	1.62120474511e-06
6.65748	3.4201335629	4.04723242646e-06
6.82826	3.41996720263	2.0082890149e-05
7.00342	3.41983169301	2.26273963197e-05
7.18307	3.41968337804	1.94075593009e-05
7.36733	3.41954500497	1.89729916072e-05
7.55631	3.41940739166	2.34299587043e-05
7.75015	3.41928927894	2.82178732817e-05
7.94895	3.41916936407	2.03107660784e-05
8.15286	3.4190442553	1.75993595175e-05
8.36199	3.41892214129	2.84800179695e-05
8.5765	3.41881666873	4.42367224609e-05
8.7965	3.41872170979	6.38547505925e-05
9.02215	3.41864934598	6.88921852037e-05
9.25358	3.41856900126	5.29104996029e-05
9.49095	3.4184689427	3.8275365769e-05
9.73442	3.41835934584	4.17442890155e-05
9.98412	3.41825872573	6.81041916138e-05
10.2402	3.41818401447	0.000110237541749
10.5029	3.41813507646	0.000124570568835
10.7723	3.41805498476	0.000140500617439
11.0487	3.41800560328	0.00019348872347
11.3321	3.41799870836	0.000209385312215
11.6228	3.41798290847	0.000180754511319
11.9209	3.41789820327	0.000143184604798
12.2267	3.41784215075	0.000203040215939
12.5404	3.4177829785	0.000177627992582
12.862	3.41774623857	0.000211473032769
13.192	3.41770534049	0.000239670887166
13.5304	3.41771953254	0.000318534223008
13.8775	3.41779174375	0.000224267396617
14.2334	3.41767590423	9.82107385851e-05
14.5986	3.41756486152	0.000115421710399
14.973	3.41746416199	0.000126065432497
15.3571	3.41734175202	0.000144031379027
15.7511	3.41708624369	0.000185951107755
16.1551	3.41710802509	0.00105704037269
16.5695	3.41789704427	0.000947586663347
16.9946	3.41786053317	0.000426110386214
17.4305	3.41767953973	0.000370181779538
17.8776	3.41769242449	0.000390732145981
18.3362	3.41768691885	0.000349856889621
18.8066	3.41766262926	0.000317930017629
19.289	3.41765029105	0.000302437106945
19.7838	3.41764550552	0.000280847563066
20.2913	3.41763814342	0.000261367941482
20.8118	3.41764033313	0.00022672801146
21.3457	3.4176175574	0.000185480570794
21.8932	3.41758845065	0.000159310081787
22.4548	3.41756076611	0.00013989106973
23.0308	3.41753375639	0.000122734140708
23.6216	3.41750509065	0.000109041063172
24.2276	3.41747637999	0.000100366624285
24.8491	3.41744885517	9.56346235211e-05
25.4865	3.41742113437	9.5082441299e-05
26.1403	3.41739630024	0.00010729359207
26.8108	3.41739303193	0.000111042834468
27.4986	3.41738070763	0.000107773746868
28.2039	3.41736704229	0.000106575058132
28.9274	3.41735415546	0.000106449318823
29.6695	3.41734130516	0.000107611573735
30.4306	3.41733018256	0.000109764413123
31.2112	3.41731746787	0.000113939453856
32.0118	3.41731672572	0.000124322189289
32.8329	3.41731432051	0.000117582325783
33.6752	3.41730621212	0.000116156368741
34.539	3.41729905296	0.000116115003742
35.425	3.41729247251	0.000116376502291
36.3337	3.41728647279	0.000116700410935
37.2658	3.41728029501	0.000117086726909
38.2217	3.41727462039	0.000118191235629
39.2021	3.41726937256	0.000118877885954
40.2078	3.41726399056	0.000120071274451
41.2392	3.41725931452	0.000121317131182
42.297	3.41725303019	0.000122814021961
43.382	3.41724789793	0.000126661596433
44.4949	3.41724414879	0.000130804431163
45.6362	3.41724111411	0.000134927958405
46.8069	3.41723902059	0.000139039335284
48.0076	3.41723734397	0.000143266094217
49.2391	3.41723558814	0.000148081853626
50.5022	3.41723554477	0.000153456865041
51.7976	3.41723640965	0.000158868176354
53.1263	3.41723842372	0.000164183088599
54.4891	3.41724103486	0.000169390335196
55.8869	3.41724508382	0.000174445074775
57.3205	3.41724967625	0.000179258262514
58.7909	3.41725577257	0.000183749962686
60.299	3.41726303307	0.000187943222936
61.8458	3.41727072892	0.000192645917418
63.4322	3.41728370381	0.000198879932007
65.0594	3.41730599248	0.000197677599519
66.7283	3.41732479173	0.000180197051251
68.44	3.41732673441	0.000159093623637
70.1956	3.41732255303	0.000147220938494
71.9963	3.41731830418	0.000139011745449
73.8431	3.41731217276	0.000134202472294
75.7373	3.41730608235	0.000134279555868
77.6801	3.41730334073	0.000137398511625
79.6728	3.41730378278	0.000145255309277
81.7165	3.41731468545	0.000152862439789
83.8127	3.41733222511	0.000150061354377
85.9627	3.41734546541	0.00013674783731
88.1678	3.41734741354	0.000121276733118
90.4294	3.41734641291	0.000109097052783
92.7491	3.4173421634	0.000100609848256
95.1283	3.41733749322	9.45787128087e-05
97.5686	3.41733440382	9.00236929533e-05
100.071	3.41733009895	8.64049126965e-05
102.638	3.41732829942	8.34277864859e-05
105.271	3.41732684979	8.09124046114e-05
107.972	3.41732531056	7.87382969063e-05
110.741	3.41732446314	7.68225715396e-05
113.582	3.41732030293	7.51073240301e-05
116.496	3.41731838072	7.35494767684e-05
119.484	3.41731967529	7.21141997028e-05
122.549	3.41731633923	7.07708455085e-05
125.693	3.41731686069	6.9490467473e-05
128.917	3.41731663093	6.82473134744e-05
132.224	3.41731565507	6.70236304743e-05
135.616	3.41731556553	6.58182345177e-05
139.094	3.41731397221	6.46523833084e-05
142.663	3.41731206894	6.35650604726e-05
146.322	3.41731578161	6.25972769545e-05
150.076	3.41730754685	6.17747651982e-05
153.925	3.41731710523	6.10979088938e-05
157.874	3.41730584969	6.05477248042e-05
161.923	3.41731791839	6.00943474946e-05
166.077	3.41731309237	5.97105890912e-05
170.337	3.41730854585	5.93750204754e-05
174.707	3.4173106119	5.90739545234e-05
179.188	3.41730874289	5.8799797102e-05
183.785	3.41730774545	5.85482808242e-05
188.499	3.41731107028	5.83170728726e-05
193.335	3.41731291781	5.8104907646e-05
198.294	3.417306975	5.79109343372e-05
203.381	3.41729832023	5.77342959011e-05
208.598	3.41730269109	5.7574056466e-05
213.949	3.41730207441	5.742991413e-05
219.437	3.41732360411	5.73008525388e-05
225.066	3.41730885499	5.71873232568e-05
230.839	3.4173011697	5.70880924858e-05
236.761	3.41728920689	5.70028590434e-05
242.834	3.41731347267	5.69304688801e-05
249.063	3.41728945672	5.68718632253e-05
255.452	3.41731899071	5.68248930299e-05
262.005	3.41731289345	5.67906057836e-05
268.726	3.41731678728	5.67678274616e-05
275.619	3.41733938256	5.67560247286e-05
282.69	3.41730689384	5.67560658183e-05
289.941	3.41730119653	5.67662705529e-05
297.379	3.41731114937	5.67865444024e-05
305.007	3.41729491786	5.68173465176e-05
