Material: main / SrF2 / Kaiser
Optical constants. W. Kaiser, W. G. Spitzer, R. H. Kaiser, L. E. Howarth. Infrared properties of CaF2, SrF2, and BaF2. Phys. Rev. 127, 1950 (1962) [Calculation script (Python)]
Comments: Single crystal; Room temperature; Lorentz oscillator model parameters provided.
wavelength (um)	n	k
10.000	1.36552	5.278e-04
10.200	1.36231	5.649e-04
10.400	1.35902	6.041e-04
10.600	1.35565	6.453e-04
10.800	1.35218	6.888e-04
11.000	1.34863	7.347e-04
11.200	1.34498	7.830e-04
11.400	1.34124	8.339e-04
11.600	1.33741	8.875e-04
11.800	1.33348	9.439e-04
12.000	1.32945	1.003e-03
12.200	1.32532	1.066e-03
12.400	1.32108	1.132e-03
12.600	1.31674	1.201e-03
12.800	1.31229	1.274e-03
13.000	1.30773	1.350e-03
13.200	1.30306	1.431e-03
13.400	1.29828	1.516e-03
13.600	1.29337	1.605e-03
13.800	1.28834	1.699e-03
14.000	1.28319	1.797e-03
14.200	1.27791	1.901e-03
14.400	1.27251	2.011e-03
14.600	1.26696	2.126e-03
14.800	1.26128	2.247e-03
15.000	1.25546	2.375e-03
15.200	1.24949	2.509e-03
15.400	1.24338	2.651e-03
15.600	1.23710	2.800e-03
15.800	1.23068	2.958e-03
16.000	1.22408	3.124e-03
16.200	1.21733	3.299e-03
16.400	1.21039	3.483e-03
16.600	1.20328	3.678e-03
16.800	1.19599	3.884e-03
17.000	1.18850	4.102e-03
17.200	1.18082	4.332e-03
17.400	1.17293	4.575e-03
17.600	1.16484	4.832e-03
17.800	1.15652	5.104e-03
18.000	1.14798	5.393e-03
18.200	1.13921	5.699e-03
18.400	1.13019	6.024e-03
18.600	1.12092	6.368e-03
18.800	1.11139	6.734e-03
19.000	1.10158	7.124e-03
19.200	1.09149	7.538e-03
19.400	1.08110	7.980e-03
19.600	1.07041	8.451e-03
19.800	1.05939	8.953e-03
20.000	1.04803	9.490e-03
20.200	1.03631	1.007e-02
20.400	1.02422	1.068e-02
20.600	1.01174	1.134e-02
20.800	0.998856	1.205e-02
21.000	0.985535	1.281e-02
21.200	0.971757	1.364e-02
21.400	0.957496	1.453e-02
21.600	0.942725	1.549e-02
21.800	0.927412	1.653e-02
22.000	0.911523	1.766e-02
22.200	0.895019	1.889e-02
22.400	0.877860	2.024e-02
22.600	0.859998	2.171e-02
22.800	0.841380	2.333e-02
23.000	0.821948	2.511e-02
23.200	0.801634	2.708e-02
23.400	0.780362	2.928e-02
23.600	0.758044	3.172e-02
23.800	0.734579	3.447e-02
24.000	0.709846	3.758e-02
24.200	0.683706	4.112e-02
24.400	0.655991	4.518e-02
24.600	0.626499	4.990e-02
24.800	0.594983	5.544e-02
25.000	0.561140	6.206e-02
25.200	0.524592	7.011e-02
25.400	0.484876	8.015e-02
25.600	0.441441	9.307e-02
25.800	0.393740	1.103e-01
26.000	0.341630	1.346e-01
26.200	0.286775	1.697e-01
26.400	0.235265	2.190e-01
26.600	0.195611	2.791e-01
26.800	0.169630	3.410e-01
27.000	0.153362	3.999e-01
27.200	0.143055	4.545e-01
27.400	0.136441	5.054e-01
27.600	0.132236	5.531e-01
27.800	0.129693	5.981e-01
28.000	0.128350	6.408e-01
28.200	0.127907	6.817e-01
28.400	0.128157	7.209e-01
28.600	0.128948	7.586e-01
28.800	0.130163	7.951e-01
29.000	0.131704	8.305e-01
29.200	0.133482	8.648e-01
29.400	0.135419	8.982e-01
29.600	0.137435	9.307e-01
29.800	0.139453	9.624e-01
30.000	0.141394	9.934e-01
30.200	0.143180	1.024e+00
30.400	0.144737	1.054e+00
30.600	0.145990	1.083e+00
30.800	0.146876	1.112e+00
31.000	0.147340	1.140e+00
31.200	0.147339	1.169e+00
31.400	0.146848	1.197e+00
31.600	0.145861	1.226e+00
31.800	0.144388	1.255e+00
32.000	0.142458	1.284e+00
32.200	0.140115	1.313e+00
32.400	0.137417	1.343e+00
32.600	0.134431	1.374e+00
32.800	0.131227	1.405e+00
33.000	0.127877	1.437e+00
33.200	0.124450	1.470e+00
33.400	0.121011	1.504e+00
33.600	0.117618	1.538e+00
33.800	0.114319	1.573e+00
34.000	0.111157	1.609e+00
34.200	0.108165	1.645e+00
34.400	0.105367	1.682e+00
34.600	0.102784	1.720e+00
34.800	0.100429	1.759e+00
35.000	0.0983104	1.799e+00
35.200	0.0964340	1.839e+00
35.400	0.0948021	1.880e+00
35.600	0.0934150	1.922e+00
35.800	0.0922715	1.965e+00
36.000	0.0913699	2.009e+00
36.200	0.0907080	2.053e+00
36.400	0.0902838	2.099e+00
36.600	0.0900953	2.145e+00
36.800	0.0901417	2.193e+00
37.000	0.0904227	2.242e+00
37.200	0.0909392	2.291e+00
37.400	0.0916934	2.342e+00
37.600	0.0926888	2.394e+00
37.800	0.0939307	2.448e+00
38.000	0.0954259	2.503e+00
38.200	0.0971834	2.560e+00
38.400	0.0992142	2.618e+00
38.600	0.101532	2.678e+00
38.800	0.104153	2.740e+00
39.000	0.107096	2.804e+00
39.200	0.110384	2.870e+00
39.400	0.114044	2.938e+00
39.600	0.118108	3.009e+00
39.800	0.122611	3.082e+00
40.000	0.127596	3.159e+00
40.200	0.133114	3.239e+00
40.400	0.139224	3.322e+00
40.600	0.145994	3.409e+00
40.800	0.153506	3.500e+00
41.000	0.161856	3.595e+00
41.200	0.171159	3.696e+00
41.400	0.181553	3.802e+00
41.600	0.193203	3.914e+00
41.800	0.206310	4.033e+00
42.000	0.221120	4.159e+00
42.200	0.237935	4.294e+00
42.400	0.257133	4.439e+00
42.600	0.279188	4.594e+00
42.800	0.304704	4.762e+00
43.000	0.334461	4.944e+00
43.200	0.369478	5.142e+00
43.400	0.411115	5.360e+00
43.600	0.461213	5.601e+00
43.800	0.522323	5.870e+00
44.000	0.598066	6.171e+00
44.200	0.693724	6.513e+00
44.400	0.817257	6.906e+00
44.600	0.981123	7.362e+00
44.800	1.20569	7.899e+00
45.000	1.52601	8.541e+00
45.200	2.00593	9.318e+00
45.400	2.76861	1.025e+01
45.600	4.05787	1.132e+01
45.800	6.29292	1.219e+01
46.000	9.58928	1.172e+01
46.200	12.1150	8.941e+00
46.400	12.3242	5.824e+00
46.600	11.4638	3.813e+00
46.800	10.4955	2.649e+00
47.000	9.65750	1.951e+00
47.200	8.96698	1.505e+00
47.400	8.39887	1.203e+00
47.600	7.92633	9.897e-01
47.800	7.52792	8.322e-01
48.000	7.18753	7.125e-01
48.200	6.89317	6.192e-01
48.400	6.63589	5.447e-01
48.600	6.40887	4.843e-01
48.800	6.20690	4.344e-01
49.000	6.02588	3.927e-01
49.200	5.86258	3.575e-01
49.400	5.71441	3.273e-01
49.600	5.57928	3.013e-01
49.800	5.45545	2.786e-01
50.000	5.34150	2.588e-01
50.200	5.23624	2.413e-01
50.400	5.13868	2.257e-01
50.600	5.04795	2.119e-01
50.800	4.96334	1.994e-01
51.000	4.88422	1.882e-01
51.200	4.81005	1.781e-01
51.400	4.74036	1.688e-01
51.600	4.67473	1.604e-01
51.800	4.61282	1.528e-01
52.000	4.55429	1.457e-01
52.200	4.49887	1.392e-01
52.400	4.44631	1.332e-01
52.600	4.39638	1.277e-01
52.800	4.34889	1.225e-01
53.000	4.30365	1.178e-01
53.200	4.26050	1.133e-01
53.400	4.21930	1.091e-01
53.600	4.17990	1.053e-01
53.800	4.14220	1.016e-01
54.000	4.10608	9.819e-02
54.200	4.07144	9.498e-02
54.400	4.03819	9.195e-02
54.600	4.00624	8.910e-02
54.800	3.97552	8.640e-02
55.000	3.94596	8.385e-02
55.200	3.91748	8.144e-02
55.400	3.89004	7.915e-02
55.600	3.86356	7.698e-02
55.800	3.83801	7.492e-02
56.000	3.81333	7.296e-02
56.200	3.78948	7.109e-02
56.400	3.76642	6.931e-02
56.600	3.74410	6.761e-02
56.800	3.72249	6.599e-02
57.000	3.70156	6.444e-02
57.200	3.68128	6.295e-02
57.400	3.66160	6.153e-02
57.600	3.64252	6.017e-02
57.800	3.62399	5.887e-02
58.000	3.60601	5.762e-02
58.200	3.58853	5.641e-02
58.400	3.57154	5.526e-02
58.600	3.55503	5.415e-02
58.800	3.53896	5.308e-02
59.000	3.52333	5.205e-02
59.200	3.50811	5.106e-02
59.400	3.49330	5.010e-02
59.600	3.47886	4.918e-02
59.800	3.46479	4.829e-02
60.000	3.45108	4.743e-02
60.200	3.43770	4.660e-02
60.400	3.42466	4.580e-02
60.600	3.41193	4.502e-02
60.800	3.39950	4.427e-02
61.000	3.38737	4.354e-02
61.200	3.37552	4.284e-02
61.400	3.36395	4.216e-02
61.600	3.35264	4.149e-02
61.800	3.34159	4.085e-02
62.000	3.33078	4.023e-02
62.200	3.32021	3.963e-02
62.400	3.30987	3.904e-02
62.600	3.29976	3.847e-02
62.800	3.28986	3.792e-02
63.000	3.28017	3.738e-02
63.200	3.27068	3.686e-02
63.400	3.26139	3.635e-02
63.600	3.25229	3.585e-02
63.800	3.24337	3.537e-02
64.000	3.23464	3.490e-02
64.200	3.22608	3.444e-02
64.400	3.21768	3.400e-02
64.600	3.20945	3.357e-02
64.800	3.20138	3.314e-02
65.000	3.19347	3.273e-02
65.200	3.18570	3.233e-02
65.400	3.17808	3.194e-02
65.600	3.17060	3.155e-02
65.800	3.16326	3.118e-02
66.000	3.15606	3.081e-02
66.200	3.14898	3.046e-02
66.400	3.14204	3.011e-02
66.600	3.13521	2.977e-02
66.800	3.12851	2.943e-02
67.000	3.12192	2.911e-02
67.200	3.11545	2.879e-02
67.400	3.10909	2.848e-02
67.600	3.10284	2.818e-02
67.800	3.09670	2.788e-02
68.000	3.09066	2.759e-02
68.200	3.08472	2.730e-02
68.400	3.07887	2.702e-02
68.600	3.07313	2.675e-02
68.800	3.06748	2.648e-02
69.000	3.06191	2.622e-02
69.200	3.05644	2.596e-02
69.400	3.05106	2.571e-02
69.600	3.04576	2.546e-02
69.800	3.04054	2.522e-02
70.000	3.03541	2.498e-02
70.200	3.03035	2.474e-02
70.400	3.02538	2.452e-02
70.600	3.02048	2.429e-02
70.800	3.01565	2.407e-02
71.000	3.01089	2.385e-02
71.200	3.00621	2.364e-02
71.400	3.00160	2.343e-02
71.600	2.99705	2.323e-02
71.800	2.99257	2.303e-02
72.000	2.98815	2.283e-02
72.200	2.98380	2.264e-02
72.400	2.97952	2.245e-02
72.600	2.97529	2.226e-02
72.800	2.97112	2.207e-02
73.000	2.96701	2.189e-02
73.200	2.96296	2.172e-02
73.400	2.95897	2.154e-02
73.600	2.95503	2.137e-02
73.800	2.95114	2.120e-02
74.000	2.94731	2.103e-02
74.200	2.94353	2.087e-02
74.400	2.93979	2.071e-02
74.600	2.93611	2.055e-02
74.800	2.93248	2.039e-02
75.000	2.92890	2.024e-02
75.200	2.92536	2.009e-02
75.400	2.92187	1.994e-02
75.600	2.91843	1.979e-02
75.800	2.91503	1.965e-02
76.000	2.91167	1.951e-02
76.200	2.90836	1.937e-02
76.400	2.90509	1.923e-02
76.600	2.90186	1.909e-02
76.800	2.89867	1.896e-02
77.000	2.89551	1.883e-02
77.200	2.89240	1.870e-02
77.400	2.88933	1.857e-02
77.600	2.88630	1.844e-02
77.800	2.88330	1.832e-02
78.000	2.88034	1.819e-02
78.200	2.87741	1.807e-02
78.400	2.87452	1.795e-02
78.600	2.87166	1.784e-02
78.800	2.86884	1.772e-02
79.000	2.86605	1.761e-02
79.200	2.86330	1.749e-02
79.400	2.86057	1.738e-02
79.600	2.85788	1.727e-02
79.800	2.85522	1.716e-02
80.000	2.85259	1.706e-02
