Material: main / LaAlO3 / Chernova
Optical constants. E. Chernova, C. Brooks, D. Chvostova, Z. Bryknar, A. Dejneka, M. Tyunina. Optical NIR-VIS-VUV constants of advanced substrates for thin-film devices. Opt. Mater. Express 7, 3844â€“3862 (2017) [Calculation script (Python)]
Comments: Lanthanum aluminate, LaAlO3 (LAO)
wavelength (um)	n	k
1.4089e-01	2.4603e+00	1.5298e+00
1.4221e-01	2.4902e+00	1.5345e+00
1.4355e-01	2.5306e+00	1.5383e+00
1.4491e-01	2.5800e+00	1.5376e+00
1.4631e-01	2.6355e+00	1.5298e+00
1.4772e-01	2.6935e+00	1.5151e+00
1.4917e-01	2.7518e+00	1.4960e+00
1.5065e-01	2.8121e+00	1.4768e+00
1.5215e-01	2.8815e+00	1.4585e+00
1.5369e-01	2.9687e+00	1.4335e+00
1.5525e-01	3.0741e+00	1.3847e+00
1.5685e-01	3.1826e+00	1.2961e+00
1.5849e-01	3.2667e+00	1.1654e+00
1.6015e-01	3.2992e+00	1.0124e+00
1.6185e-01	3.2721e+00	8.8088e-01
1.6359e-01	3.2274e+00	8.1863e-01
1.6537e-01	3.2500e+00	8.0005e-01
1.6719e-01	3.3405e+00	7.1346e-01
1.6904e-01	3.3832e+00	5.3086e-01
1.7094e-01	3.3202e+00	3.4541e-01
1.7288e-01	3.2053e+00	2.2721e-01
1.7486e-01	3.0976e+00	1.6605e-01
1.7690e-01	3.0103e+00	1.3004e-01
1.7897e-01	2.9375e+00	1.0458e-01
1.8110e-01	2.8743e+00	8.5665e-02
1.8328e-01	2.8186e+00	7.1629e-02
1.8552e-01	2.7695e+00	6.1068e-02
1.8780e-01	2.7260e+00	5.2712e-02
1.9015e-01	2.6872e+00	4.5615e-02
1.9255e-01	2.6521e+00	3.9137e-02
1.9502e-01	2.6199e+00	3.2979e-02
1.9755e-01	2.5899e+00	2.7085e-02
2.0014e-01	2.5615e+00	2.1561e-02
2.0281e-01	2.5345e+00	1.6570e-02
2.0555e-01	2.5088e+00	1.2262e-02
2.0836e-01	2.4842e+00	8.7207e-03
2.1125e-01	2.4609e+00	5.9524e-03
2.1422e-01	2.4389e+00	3.8971e-03
2.1728e-01	2.4181e+00	2.4441e-03
2.2042e-01	2.3986e+00	1.4698e-03
2.2366e-01	2.3803e+00	8.4534e-04
2.2699e-01	2.3632e+00	4.6655e-04
2.3043e-01	2.3471e+00	2.4598e-04
2.3397e-01	2.3320e+00	1.2449e-04
2.3762e-01	2.3177e+00	6.0186e-05
2.4139e-01	2.3041e+00	2.7912e-05
2.4527e-01	2.2913e+00	1.2377e-05
2.4929e-01	2.2791e+00	5.2576e-06
2.5344e-01	2.2675e+00	2.1392e-06
2.5773e-01	2.2565e+00	8.3205e-07
2.6216e-01	2.2459e+00	3.1080e-07
2.6675e-01	2.2359e+00	1.1067e-07
2.7151e-01	2.2262e+00	3.7980e-08
2.7644e-01	2.2170e+00	1.2383e-08
2.8155e-01	2.2081e+00	3.9092e-09
2.8685e-01	2.1996e+00	1.1728e-09
2.9236e-01	2.1915e+00	3.4029e-10
2.9808e-01	2.1837e+00	9.4407e-11
3.0403e-01	2.1762e+00	2.5358e-11
3.1023e-01	2.1690e+00	6.6000e-12
3.1668e-01	2.1621e+00	1.6819e-12
3.2340e-01	2.1554e+00	4.2915e-13
3.3042e-01	2.1490e+00	1.1152e-13
3.3775e-01	2.1428e+00	3.0969e-14
3.4541e-01	2.1369e+00	9.2889e-15
3.5342e-01	2.1312e+00	3.0893e-15
3.6182e-01	2.1257e+00	1.0983e-15
3.7063e-01	2.1204e+00	4.1214e-16
3.7987e-01	2.1153e+00	1.5731e-16
3.8959e-01	2.1105e+00	6.0631e-17
3.9982e-01	2.1058e+00	2.3253e-17
4.1060e-01	2.1012e+00	8.8602e-18
4.2198e-01	2.0969e+00	3.3449e-18
4.3400e-01	2.0927e+00	1.2472e-18
4.4673e-01	2.0887e+00	4.6119e-19
4.6023e-01	2.0848e+00	1.6784e-19
4.7458e-01	2.0811e+00	6.0729e-20
4.8984e-01	2.0776e+00	2.1557e-20
5.0612e-01	2.0742e+00	7.6297e-21
5.2352e-01	2.0709e+00	2.6488e-21
5.4216e-01	2.0678e+00	9.1429e-22
5.6217e-01	2.0648e+00	3.1047e-22
5.8372e-01	2.0619e+00	1.0449e-22
6.0698e-01	2.0592e+00	3.4708e-23
6.3218e-01	2.0566e+00	1.1388e-23
6.5956e-01	2.0541e+00	3.7004e-24
6.8942e-01	2.0518e+00	1.1836e-24
7.2211e-01	2.0495e+00	3.7626e-25
7.5806e-01	2.0474e+00	1.1731e-25
7.9777e-01	2.0454e+00	3.6485e-26
8.4187e-01	2.0435e+00	1.1106e-26
8.9113e-01	2.0417e+00	3.3739e-27
9.4652e-01	2.0400e+00	1.0049e-27
1.0092e+00	2.0385e+00	2.9752e-28
1.0809e+00	2.0370e+00	8.6718e-29
1.1635e+00	2.0357e+00	2.5020e-29
1.2597e+00	2.0344e+00	7.1366e-30
1.3733e+00	2.0333e+00	2.0063e-30
1.5094e+00	2.0322e+00	5.6010e-31
1.6755e+00	2.0313e+00	1.5342e-31
