Material: organic / (C19H28O2)n - MDMO-PPV / Kamptner-e
Optical constants. A. Kamptner, M. C. Scharber, M. Schiek. Accurate determination of the uniaxial complex refractive index and the optical band gap of polymer thin films to correlate their absorption strength and onset of absorption. Chem. Phys. Chem. e202400233 (2024) (Numerical data kindly provided by Manuela Schiek)
Comments: Extraordinary ray (e)
wavelength (um)	n	k
0.19146	1.54015	3.25800E-02
0.19465	1.51216	3.40400E-02
0.19784	1.49887	4.33800E-02
0.20104	1.49385	4.92500E-02
0.20423	1.49029	5.41500E-02
0.20742	1.49047	6.10800E-02
0.21062	1.49709	6.62100E-02
0.21381	1.50738	6.52200E-02
0.21701	1.51676	5.80000E-02
0.22020	1.52274	4.61900E-02
0.22340	1.52332	3.21000E-02
0.22659	1.51834	1.91300E-02
0.22979	1.50987	1.00000E-02
0.23298	1.50097	4.69000E-03
0.23618	1.49286	1.89000E-03
0.23938	1.48582	5.59000E-04
0.24257	1.47974	7.40000E-05
0.24577	1.47449	0
0.24897	1.46979	0
0.25216	1.46530	0
0.25536	1.46076	0
0.25856	1.45580	5.00000E-05
0.26176	1.44998	7.41000E-04
0.26496	1.44350	2.93000E-03
0.26815	1.43710	7.37000E-03
0.27135	1.43238	1.41800E-02
0.27455	1.43045	2.20500E-02
0.27775	1.43133	2.95700E-02
0.28095	1.43441	3.55300E-02
0.28415	1.43839	3.93900E-02
0.28735	1.44233	4.16100E-02
0.29055	1.44588	4.26900E-02
0.29375	1.44891	4.30400E-02
0.29695	1.45154	4.29800E-02
0.30015	1.45390	4.25900E-02
0.30335	1.45600	4.18600E-02
0.30655	1.45783	4.08000E-02
0.30975	1.45933	3.94300E-02
0.31295	1.46037	3.78100E-02
0.31615	1.46092	3.61000E-02
0.31935	1.46099	3.44500E-02
0.32255	1.46066	3.29900E-02
0.32576	1.46002	3.18300E-02
0.32896	1.45927	3.10200E-02
0.33216	1.45856	3.04500E-02
0.33536	1.45793	3.00300E-02
0.33856	1.45739	2.96500E-02
0.34176	1.45690	2.92300E-02
0.34497	1.45637	2.86800E-02
0.34817	1.45566	2.80200E-02
0.35137	1.45468	2.73500E-02
0.35457	1.45341	2.67900E-02
0.35777	1.45187	2.64300E-02
0.36098	1.45011	2.63500E-02
0.36418	1.44820	2.66500E-02
0.36738	1.44625	2.73700E-02
0.37058	1.44440	2.84800E-02
0.37379	1.44271	2.99400E-02
0.37699	1.44123	3.16800E-02
0.38019	1.44000	3.36700E-02
0.38339	1.43903	3.58500E-02
0.38660	1.43836	3.81900E-02
0.38980	1.43801	4.06500E-02
0.39300	1.43802	4.31600E-02
0.39621	1.43838	4.56500E-02
0.39941	1.43908	4.80300E-02
0.40261	1.44008	5.02500E-02
0.40581	1.44134	5.22300E-02
0.40902	1.44278	5.39300E-02
0.41222	1.44433	5.53100E-02
0.41542	1.44588	5.63200E-02
0.41863	1.44726	5.69900E-02
0.42183	1.44835	5.74600E-02
0.42503	1.44912	5.78600E-02
0.42823	1.44958	5.83300E-02
0.43144	1.44975	5.89600E-02
0.43464	1.44971	5.98700E-02
0.43784	1.44952	6.11400E-02
0.44105	1.44928	6.28500E-02
0.44425	1.44913	6.50800E-02
0.44745	1.44927	6.78600E-02
0.45065	1.44996	7.10900E-02
0.45386	1.45130	7.45700E-02
0.45706	1.45333	7.81200E-02
0.46026	1.45606	8.16000E-02
0.46346	1.45945	8.48400E-02
0.46667	1.46347	8.77300E-02
0.46987	1.46803	9.01400E-02
0.47307	1.47304	9.19900E-02
0.47627	1.47841	9.31700E-02
0.47947	1.48399	9.36200E-02
0.48267	1.48963	9.32800E-02
0.48588	1.49512	9.22000E-02
0.48908	1.50035	9.05000E-02
0.49228	1.50525	8.82500E-02
0.49548	1.50977	8.55600E-02
0.49868	1.51389	8.24900E-02
0.50188	1.51760	7.91300E-02
0.50508	1.52088	7.55400E-02
0.50828	1.52375	7.17700E-02
0.51149	1.52620	6.78800E-02
0.51469	1.52824	6.39200E-02
0.51789	1.52990	5.99400E-02
0.52109	1.53120	5.59700E-02
0.52429	1.53215	5.20600E-02
0.52749	1.53280	4.82200E-02
0.53069	1.53316	4.44700E-02
0.53389	1.53326	4.08300E-02
0.53709	1.53312	3.73000E-02
0.54028	1.53276	3.38900E-02
0.54348	1.53218	3.06200E-02
0.54668	1.53141	2.75000E-02
0.54988	1.53047	2.45400E-02
0.55308	1.52936	2.17400E-02
0.55628	1.52811	1.91000E-02
0.55948	1.52673	1.66500E-02
0.56267	1.52524	1.43900E-02
0.56587	1.52366	1.23200E-02
0.56907	1.52200	1.04400E-02
0.57227	1.52030	8.77000E-03
0.57546	1.51858	7.30000E-03
0.57866	1.51687	6.02000E-03
0.58186	1.51519	4.91000E-03
0.58505	1.51354	3.95000E-03
0.58825	1.51194	3.14000E-03
0.59144	1.51040	2.45000E-03
0.59464	1.50892	1.88000E-03
0.59783	1.50750	1.40000E-03
0.60103	1.50615	1.02000E-03
0.60422	1.50487	7.18000E-04
0.60742	1.50366	4.84000E-04
0.61061	1.50253	3.09000E-04
0.61381	1.50146	1.83000E-04
0.61700	1.50046	9.80000E-05
0.62019	1.49953	4.50000E-05
0.62339	1.49867	1.60000E-05
0.62658	1.49786	3.00000E-06
0.62977	1.49712	0
0.63296	1.49642	0
0.63616	1.49576	0
0.63935	1.49514	0
0.64254	1.49455	0
0.64573	1.49399	0
0.64892	1.49346	0
0.65211	1.49295	0
0.65530	1.49247	0
0.65849	1.49200	0
0.66168	1.49155	0
0.66487	1.49113	0
0.66805	1.49071	0
0.67124	1.49032	0
0.67443	1.48993	0
0.67762	1.48957	0
0.68080	1.48921	0
0.68399	1.48887	0
0.68718	1.48853	0
0.69036	1.48821	0
0.69355	1.48790	0
0.69673	1.48760	0
0.69992	1.48731	0
0.70310	1.48702	0
0.70628	1.48675	0
0.70947	1.48648	0
0.71265	1.48622	0
0.71583	1.48597	0
0.71902	1.48572	0
0.72220	1.48549	0
0.72538	1.48525	0
0.72856	1.48503	0
0.73174	1.48481	0
0.73492	1.48459	0
0.73810	1.48438	0
0.74128	1.48418	0
0.74446	1.48398	0
0.74763	1.48379	0
0.75081	1.48360	0
0.75399	1.48341	0
0.75716	1.48323	0
0.76034	1.48306	0
0.76352	1.48288	0
0.76669	1.48272	0
0.76987	1.48255	0
0.77304	1.48239	0
0.77621	1.48223	0
0.77939	1.48208	0
0.78256	1.48193	0
0.78573	1.48178	0
0.78890	1.48163	0
0.79207	1.48149	0
0.79524	1.48135	0
0.79841	1.48122	0
0.80158	1.48108	0
0.80475	1.48095	0
0.80792	1.48082	0
0.81109	1.48070	0
0.81425	1.48058	0
0.81742	1.48045	0
0.82058	1.48034	0
0.82375	1.48022	0
0.82691	1.48010	0
0.83008	1.47999	0
0.83324	1.47988	0
0.83641	1.47977	0
0.83957	1.47967	0
0.84273	1.47956	0
0.84589	1.47946	0
0.84905	1.47936	0
0.85221	1.47926	0
0.85537	1.47916	0
0.85853	1.47907	0
0.86169	1.47897	0
0.86484	1.47888	0
0.86800	1.47879	0
0.87116	1.47870	0
0.87431	1.47861	0
0.87747	1.47852	0
0.88062	1.47844	0
0.88377	1.47835	0
0.88693	1.47827	0
0.89008	1.47819	0
0.89323	1.47811	0
0.89638	1.47803	0
0.89953	1.47795	0
0.90268	1.47788	0
0.90583	1.47780	0
0.90898	1.47773	0
0.91212	1.47765	0
0.91527	1.47758	0
0.91842	1.47751	0
0.92156	1.47744	0
0.92470	1.47737	0
0.92785	1.47731	0
0.93099	1.47724	0
0.93413	1.47717	0
0.93728	1.47711	0
0.94042	1.47704	0
0.94356	1.47698	0
0.94669	1.47692	0
0.94983	1.47686	0
0.95297	1.47680	0
0.95611	1.47674	0
0.95924	1.47668	0
0.96238	1.47662	0
0.96551	1.47656	0
0.96865	1.47651	0
0.97178	1.47645	0
0.97491	1.47639	0
0.97804	1.47634	0
0.98117	1.47629	0
0.98430	1.47623	0
0.98743	1.47618	0
0.99056	1.47613	0
0.99369	1.47608	0
0.99681	1.47603	0
0.99994	1.47598	0
1.01681	1.47572	0
1.02367	1.47562	0
1.03052	1.47552	0
1.03738	1.47543	0
1.04423	1.47534	0
1.05109	1.47524	0
1.05795	1.47516	0
1.06480	1.47507	0
1.07166	1.47499	0
1.07851	1.47490	0
1.08537	1.47483	0
1.09223	1.47475	0
1.09908	1.47467	0
1.10594	1.47460	0
1.11280	1.47452	0
1.11965	1.47445	0
1.12651	1.47438	0
1.13337	1.47432	0
1.14022	1.47425	0
1.14708	1.47418	0
1.15394	1.47412	0
1.16080	1.47406	0
1.16766	1.47400	0
1.17452	1.47394	0
1.18138	1.47388	0
1.18824	1.47382	0
1.19510	1.47377	0
1.20196	1.47371	0
1.20883	1.47366	0
1.21569	1.47360	0
1.22255	1.47355	0
1.22942	1.47350	0
1.23628	1.47345	0
1.24315	1.47340	0
1.25001	1.47336	0
1.25688	1.47331	0
1.26375	1.47326	0
1.27062	1.47322	0
1.27749	1.47317	0
1.28436	1.47313	0
1.29123	1.47309	0
1.29810	1.47304	0
1.30497	1.47300	0
1.31185	1.47296	0
1.31872	1.47292	0
1.32560	1.47289	0
1.33248	1.47285	0
1.33935	1.47281	0
1.34623	1.47277	0
1.35311	1.47274	0
1.36000	1.47270	0
1.36688	1.47266	0
1.37376	1.47263	0
1.38065	1.47260	0
1.38753	1.47256	0
1.39442	1.47253	0
1.40131	1.47250	0
1.40820	1.47247	0
1.41509	1.47244	0
1.42199	1.47241	0
1.42888	1.47238	0
1.43578	1.47235	0
1.44267	1.47232	0
1.44957	1.47229	0
1.45647	1.47226	0
1.46337	1.47223	0
1.47028	1.47220	0
1.47718	1.47218	0
1.48409	1.47215	0
1.49100	1.47212	0
1.49791	1.47210	0
1.50482	1.47207	0
1.51173	1.47205	0
1.51865	1.47202	0
1.52556	1.47200	0
1.53248	1.47198	0
1.53940	1.47195	0
1.54633	1.47193	0
1.55325	1.47191	0
1.56018	1.47188	0
1.56711	1.47186	0
1.57404	1.47184	0
1.58097	1.47182	0
1.58790	1.47180	0
1.59484	1.47177	0
1.60178	1.47175	0
1.60872	1.47173	0
1.61566	1.47171	0
1.62260	1.47169	0
1.62955	1.47167	0
1.63650	1.47165	0
1.64345	1.47164	0
1.65040	1.47162	0
1.65736	1.47160	0
1.66432	1.47158	0
1.67128	1.47156	0
1.67824	1.47154	0
1.68520	1.47153	0
