Material: main / BaF2 / Kaiser
Optical constants. W. Kaiser, W. G. Spitzer, R. H. Kaiser, L. E. Howarth. Infrared properties of CaF2, SrF2, and BaF2. Phys. Rev. 127, 1950 (1962) [Calculation script (Python)]
Comments: Single crystal; Room temperature; Lorentz oscillator model parameters provided.
wavelength (um)	n	k
10.000	1.41297	3.985e-04
10.200	1.41055	4.256e-04
10.400	1.40806	4.540e-04
10.600	1.40551	4.838e-04
10.800	1.40290	5.152e-04
11.000	1.40023	5.480e-04
11.200	1.39749	5.825e-04
11.400	1.39469	6.187e-04
11.600	1.39183	6.566e-04
11.800	1.38890	6.963e-04
12.000	1.38590	7.379e-04
12.200	1.38283	7.815e-04
12.400	1.37970	8.271e-04
12.600	1.37650	8.749e-04
12.800	1.37322	9.249e-04
13.000	1.36987	9.772e-04
13.200	1.36645	1.032e-03
13.400	1.36296	1.089e-03
13.600	1.35938	1.149e-03
13.800	1.35573	1.211e-03
14.000	1.35200	1.277e-03
14.200	1.34819	1.345e-03
14.400	1.34430	1.417e-03
14.600	1.34033	1.491e-03
14.800	1.33627	1.569e-03
15.000	1.33212	1.651e-03
15.200	1.32789	1.736e-03
15.400	1.32357	1.825e-03
15.600	1.31915	1.918e-03
15.800	1.31464	2.016e-03
16.000	1.31003	2.117e-03
16.200	1.30533	2.224e-03
16.400	1.30053	2.335e-03
16.600	1.29562	2.451e-03
16.800	1.29061	2.573e-03
17.000	1.28550	2.700e-03
17.200	1.28027	2.832e-03
17.400	1.27493	2.971e-03
17.600	1.26948	3.117e-03
17.800	1.26391	3.269e-03
18.000	1.25822	3.428e-03
18.200	1.25241	3.595e-03
18.400	1.24647	3.770e-03
18.600	1.24040	3.952e-03
18.800	1.23420	4.144e-03
19.000	1.22786	4.345e-03
19.200	1.22139	4.555e-03
19.400	1.21476	4.776e-03
19.600	1.20799	5.007e-03
19.800	1.20107	5.250e-03
20.000	1.19399	5.505e-03
20.200	1.18675	5.773e-03
20.400	1.17935	6.054e-03
20.600	1.17177	6.350e-03
20.800	1.16401	6.660e-03
21.000	1.15608	6.988e-03
21.200	1.14795	7.332e-03
21.400	1.13963	7.694e-03
21.600	1.13111	8.077e-03
21.800	1.12238	8.480e-03
22.000	1.11344	8.905e-03
22.200	1.10427	9.354e-03
22.400	1.09487	9.828e-03
22.600	1.08524	1.033e-02
22.800	1.07535	1.086e-02
23.000	1.06520	1.142e-02
23.200	1.05479	1.202e-02
23.400	1.04409	1.265e-02
23.600	1.03311	1.332e-02
23.800	1.02182	1.403e-02
24.000	1.01021	1.479e-02
24.200	0.998267	1.560e-02
24.400	0.985978	1.646e-02
24.600	0.973324	1.738e-02
24.800	0.960288	1.837e-02
25.000	0.946851	1.942e-02
25.200	0.932990	2.055e-02
25.400	0.918683	2.177e-02
25.600	0.903906	2.307e-02
25.800	0.888630	2.448e-02
26.000	0.872827	2.601e-02
26.200	0.856463	2.765e-02
26.400	0.839501	2.944e-02
26.600	0.821901	3.139e-02
26.800	0.803618	3.352e-02
27.000	0.784603	3.585e-02
27.200	0.764797	3.840e-02
27.400	0.744136	4.123e-02
27.600	0.722548	4.436e-02
27.800	0.699949	4.785e-02
28.000	0.676241	5.176e-02
28.200	0.651314	5.617e-02
28.400	0.625035	6.120e-02
28.600	0.597253	6.697e-02
28.800	0.567786	7.367e-02
29.000	0.536427	8.157e-02
29.200	0.502938	9.101e-02
29.400	0.467064	1.025e-01
29.600	0.428584	1.169e-01
29.800	0.387444	1.353e-01
30.000	0.344107	1.595e-01
30.200	0.300244	1.913e-01
30.400	0.259331	2.318e-01
30.600	0.225383	2.791e-01
30.800	0.199993	3.291e-01
31.000	0.181950	3.784e-01
31.200	0.169227	4.256e-01
31.400	0.160166	4.703e-01
31.600	0.153636	5.125e-01
31.800	0.148897	5.526e-01
32.000	0.145459	5.908e-01
32.200	0.142987	6.274e-01
32.400	0.141246	6.625e-01
32.600	0.140064	6.964e-01
32.800	0.139311	7.291e-01
33.000	0.138884	7.609e-01
33.200	0.138701	7.917e-01
33.400	0.138692	8.218e-01
33.600	0.138797	8.512e-01
33.800	0.138965	8.799e-01
34.000	0.139150	9.080e-01
34.200	0.139309	9.357e-01
34.400	0.139407	9.629e-01
34.600	0.139410	9.897e-01
34.800	0.139291	1.016e+00
35.000	0.139027	1.042e+00
35.200	0.138598	1.069e+00
35.400	0.137992	1.094e+00
35.600	0.137200	1.120e+00
35.800	0.136219	1.146e+00
36.000	0.135051	1.172e+00
36.200	0.133704	1.198e+00
36.400	0.132188	1.224e+00
36.600	0.130520	1.250e+00
36.800	0.128716	1.276e+00
37.000	0.126799	1.303e+00
37.200	0.124790	1.330e+00
37.400	0.122712	1.357e+00
37.600	0.120590	1.384e+00
37.800	0.118445	1.412e+00
38.000	0.116300	1.440e+00
38.200	0.114175	1.469e+00
38.400	0.112089	1.498e+00
38.600	0.110059	1.527e+00
38.800	0.108100	1.557e+00
39.000	0.106226	1.587e+00
39.200	0.104446	1.618e+00
39.400	0.102771	1.648e+00
39.600	0.101208	1.680e+00
39.800	0.0997638	1.712e+00
40.000	0.0984425	1.744e+00
40.200	0.0972482	1.776e+00
40.400	0.0961837	1.809e+00
40.600	0.0952510	1.843e+00
40.800	0.0944516	1.877e+00
41.000	0.0937864	1.911e+00
41.200	0.0932560	1.946e+00
41.400	0.0928610	1.982e+00
41.600	0.0926017	2.018e+00
41.800	0.0924784	2.054e+00
42.000	0.0924915	2.092e+00
42.200	0.0926416	2.129e+00
42.400	0.0929297	2.168e+00
42.600	0.0933567	2.207e+00
42.800	0.0939242	2.247e+00
43.000	0.0946341	2.287e+00
43.200	0.0954887	2.328e+00
43.400	0.0964909	2.370e+00
43.600	0.0976443	2.413e+00
43.800	0.0989528	2.457e+00
44.000	0.100421	2.501e+00
44.200	0.102055	2.547e+00
44.400	0.103861	2.593e+00
44.600	0.105847	2.641e+00
44.800	0.108019	2.689e+00
45.000	0.110389	2.739e+00
45.200	0.112966	2.790e+00
45.400	0.115763	2.843e+00
45.600	0.118793	2.896e+00
45.800	0.122071	2.952e+00
46.000	0.125615	3.008e+00
46.200	0.129443	3.067e+00
46.400	0.133578	3.127e+00
46.600	0.138044	3.189e+00
46.800	0.142868	3.253e+00
47.000	0.148082	3.319e+00
47.200	0.153721	3.388e+00
47.400	0.159824	3.459e+00
47.600	0.166439	3.532e+00
47.800	0.173616	3.609e+00
48.000	0.181415	3.688e+00
48.200	0.189906	3.771e+00
48.400	0.199166	3.857e+00
48.600	0.209288	3.947e+00
48.800	0.220378	4.041e+00
49.000	0.232560	4.140e+00
49.200	0.245980	4.244e+00
49.400	0.260812	4.353e+00
49.600	0.277261	4.468e+00
49.800	0.295571	4.590e+00
50.000	0.316040	4.719e+00
50.200	0.339027	4.856e+00
50.400	0.364972	5.002e+00
50.600	0.394419	5.158e+00
50.800	0.428047	5.326e+00
51.000	0.466714	5.507e+00
51.200	0.511514	5.703e+00
51.400	0.563864	5.915e+00
51.600	0.625626	6.148e+00
51.800	0.699285	6.403e+00
52.000	0.788221	6.686e+00
52.200	0.897126	7.001e+00
52.400	1.03266	7.353e+00
52.600	1.20453	7.751e+00
52.800	1.42727	8.205e+00
53.000	1.72333	8.724e+00
53.200	2.12845	9.320e+00
53.400	2.70101	1.000e+01
53.600	3.53702	1.075e+01
53.800	4.78540	1.149e+01
54.000	6.61705	1.196e+01
54.200	8.98133	1.163e+01
54.400	11.1386	1.002e+01
54.600	12.1362	7.671e+00
54.800	12.0398	5.588e+00
55.000	11.4548	4.104e+00
55.200	10.7635	3.105e+00
55.400	10.1091	2.427e+00
55.600	9.52904	1.953e+00
55.800	9.02484	1.611e+00
56.000	8.58766	1.356e+00
56.200	8.20706	1.161e+00
56.400	7.87361	1.008e+00
56.600	7.57937	8.858e-01
56.800	7.31791	7.865e-01
57.000	7.08402	7.046e-01
57.200	6.87350	6.361e-01
57.400	6.68294	5.781e-01
57.600	6.50956	5.286e-01
57.800	6.35105	4.859e-01
58.000	6.20552	4.487e-01
58.200	6.07137	4.162e-01
58.400	5.94727	3.876e-01
58.600	5.83209	3.621e-01
58.800	5.72486	3.395e-01
59.000	5.62475	3.191e-01
59.200	5.53104	3.008e-01
59.400	5.44311	2.843e-01
59.600	5.36042	2.693e-01
59.800	5.28250	2.556e-01
60.000	5.20893	2.431e-01
60.200	5.13933	2.316e-01
60.400	5.07339	2.210e-01
60.600	5.01081	2.113e-01
60.800	4.95132	2.023e-01
61.000	4.89470	1.940e-01
61.200	4.84073	1.862e-01
61.400	4.78923	1.790e-01
61.600	4.74002	1.723e-01
61.800	4.69295	1.660e-01
62.000	4.64788	1.601e-01
62.200	4.60467	1.546e-01
62.400	4.56321	1.494e-01
62.600	4.52340	1.445e-01
62.800	4.48512	1.399e-01
63.000	4.44830	1.355e-01
63.200	4.41285	1.314e-01
63.400	4.37868	1.275e-01
63.600	4.34574	1.239e-01
63.800	4.31395	1.204e-01
64.000	4.28325	1.171e-01
64.200	4.25358	1.139e-01
64.400	4.22490	1.109e-01
64.600	4.19715	1.080e-01
64.800	4.17029	1.053e-01
65.000	4.14427	1.027e-01
65.200	4.11905	1.002e-01
65.400	4.09460	9.786e-02
65.600	4.07088	9.558e-02
65.800	4.04786	9.341e-02
66.000	4.02550	9.132e-02
66.200	4.00378	8.932e-02
66.400	3.98267	8.739e-02
66.600	3.96215	8.555e-02
66.800	3.94218	8.378e-02
67.000	3.92275	8.207e-02
67.200	3.90384	8.043e-02
67.400	3.88542	7.885e-02
67.600	3.86748	7.732e-02
67.800	3.84999	7.585e-02
68.000	3.83294	7.443e-02
68.200	3.81631	7.307e-02
68.400	3.80009	7.175e-02
68.600	3.78427	7.047e-02
68.800	3.76881	6.924e-02
69.000	3.75373	6.804e-02
69.200	3.73899	6.689e-02
69.400	3.72459	6.577e-02
69.600	3.71052	6.469e-02
69.800	3.69677	6.364e-02
70.000	3.68332	6.262e-02
70.200	3.67017	6.163e-02
70.400	3.65730	6.068e-02
70.600	3.64471	5.975e-02
70.800	3.63238	5.885e-02
71.000	3.62032	5.797e-02
71.200	3.60850	5.712e-02
71.400	3.59693	5.629e-02
71.600	3.58560	5.549e-02
71.800	3.57449	5.471e-02
72.000	3.56360	5.395e-02
72.200	3.55293	5.321e-02
72.400	3.54247	5.248e-02
72.600	3.53221	5.178e-02
72.800	3.52215	5.110e-02
73.000	3.51227	5.043e-02
73.200	3.50259	4.978e-02
73.400	3.49308	4.915e-02
73.600	3.48375	4.853e-02
73.800	3.47459	4.793e-02
74.000	3.46560	4.734e-02
74.200	3.45676	4.676e-02
74.400	3.44809	4.620e-02
74.600	3.43957	4.566e-02
74.800	3.43119	4.512e-02
75.000	3.42297	4.460e-02
75.200	3.41488	4.409e-02
75.400	3.40693	4.359e-02
75.600	3.39912	4.310e-02
75.800	3.39143	4.262e-02
76.000	3.38388	4.216e-02
76.200	3.37645	4.170e-02
76.400	3.36914	4.125e-02
76.600	3.36195	4.081e-02
76.800	3.35488	4.039e-02
77.000	3.34792	3.997e-02
77.200	3.34107	3.955e-02
77.400	3.33432	3.915e-02
77.600	3.32769	3.876e-02
77.800	3.32115	3.837e-02
78.000	3.31472	3.799e-02
78.200	3.30838	3.762e-02
78.400	3.30215	3.726e-02
78.600	3.29600	3.690e-02
78.800	3.28995	3.655e-02
79.000	3.28398	3.620e-02
79.200	3.27811	3.587e-02
79.400	3.27232	3.554e-02
79.600	3.26661	3.521e-02
79.800	3.26099	3.489e-02
80.000	3.25545	3.458e-02
