Material: main / TiN / Beliaev-ALD
Optical constants. L. Yu. Beliaev, E. Shkondin, A. V. Lavrinenko, O. Takayama. Titanium nitride nanotrench metasurfaces for mid-infrared chemical sensing. ACS Appl. Opt. Mater. 2, 88-96 (2023) (Numerical data kindly provided by Osamu Takayama)
Comments: 100 nm thick TiN film deposited by atomic layer deposition at 500 °C with post-annealing at 900 °C.
Conditions: {"film_thickness": "100e-9", "substrate": "Si"}
wavelength (um)	n	k
2.00000	1.14069	4.40411
2.00652	1.14700	4.42133
2.01308	1.15336	4.43863
2.01969	1.15979	4.45600
2.02633	1.16627	4.47342
2.03303	1.17280	4.49092
2.03976	1.17939	4.50849
2.04655	1.18604	4.52612
2.05337	1.19275	4.54383
2.06025	1.19951	4.56160
2.06716	1.20634	4.57945
2.07413	1.21323	4.59737
2.08114	1.22017	4.61536
2.08820	1.22717	4.63342
2.09531	1.23424	4.65155
2.10247	1.24137	4.66977
2.10967	1.24856	4.68806
2.11693	1.25581	4.70642
2.12423	1.26312	4.72486
2.13159	1.27050	4.74338
2.13900	1.27794	4.76198
2.14646	1.28544	4.78064
2.15397	1.29300	4.79940
2.16153	1.30064	4.81823
2.16915	1.30834	4.83714
2.17682	1.31611	4.85614
2.18454	1.32394	4.87522
2.19232	1.33184	4.89438
2.20016	1.33981	4.91363
2.20805	1.34785	4.93296
2.21600	1.35595	4.95238
2.22401	1.36413	4.97189
2.23207	1.37238	4.99148
2.24019	1.38070	5.01116
2.24838	1.38910	5.03093
2.25662	1.39756	5.05080
2.26492	1.40609	5.07075
2.27329	1.41471	5.09080
2.28171	1.42340	5.11094
2.29020	1.43217	5.13118
2.29876	1.44102	5.15151
2.30737	1.44994	5.17194
2.31605	1.45894	5.19247
2.32480	1.46803	5.21309
2.33361	1.47719	5.23381
2.34250	1.48644	5.25464
2.35144	1.49577	5.27556
2.36046	1.50518	5.29659
2.36954	1.51469	5.31772
2.37870	1.52428	5.33896
2.38793	1.53396	5.36031
2.39723	1.54373	5.38176
2.40661	1.55359	5.40332
2.41605	1.56355	5.42498
2.42557	1.57360	5.44675
2.43516	1.58375	5.46864
2.44484	1.59399	5.49064
2.45458	1.60433	5.51275
2.46441	1.61477	5.53497
2.47432	1.62531	5.55730
2.48431	1.63596	5.57975
2.49437	1.64671	5.60232
2.50452	1.65758	5.62499
2.51476	1.66854	5.64779
2.52507	1.67962	5.67070
2.53547	1.69081	5.69373
2.54595	1.70210	5.71687
2.55653	1.71352	5.74014
2.56719	1.72506	5.76352
2.57794	1.73671	5.78702
2.58878	1.74848	5.81064
2.59972	1.76037	5.83437
2.61075	1.77239	5.85823
2.62186	1.78453	5.88222
2.63308	1.79680	5.90631
2.64439	1.80919	5.93052
2.65580	1.82171	5.95486
2.66731	1.83438	5.97931
2.67892	1.84716	6.00388
2.69062	1.86008	6.02857
2.70244	1.87314	6.05338
2.71435	1.88633	6.07831
2.72638	1.89966	6.10336
2.73851	1.91313	6.12852
2.75074	1.92674	6.15380
2.76309	1.94048	6.17920
2.77555	1.95436	6.20470
2.78812	1.96839	6.23033
2.80081	1.98255	6.25607
2.81361	1.99686	6.28192
2.82653	2.01131	6.30789
2.83957	2.02590	6.33397
2.85273	2.04063	6.36016
2.86601	2.05550	6.38647
2.87942	2.07052	6.41289
2.89295	2.08566	6.43942
2.90661	2.10096	6.46606
2.92040	2.11638	6.49282
2.93432	2.13194	6.51968
2.94837	2.14763	6.54666
2.96257	2.16345	6.57375
2.97689	2.17940	6.60095
2.99136	2.19549	6.62827
3.00597	2.21170	6.65571
3.02072	2.22804	6.68326
3.03562	2.24449	6.71093
3.05066	2.26106	6.73872
3.06586	2.27775	6.76664
3.08120	2.29454	6.79468
3.09670	2.31145	6.82286
3.11236	2.32847	6.85116
3.12818	2.34559	6.87961
3.14415	2.36281	6.90819
3.16030	2.38013	6.93692
3.17661	2.39753	6.96580
3.19308	2.41504	6.99483
3.20974	2.43263	7.02404
3.22656	2.45031	7.05341
3.24356	2.46807	7.08296
3.26074	2.48592	7.11269
3.27811	2.50384	7.14262
3.29565	2.52184	7.17275
3.31340	2.53993	7.20308
3.33132	2.55808	7.23364
3.34946	2.57631	7.26442
3.36779	2.59462	7.29545
3.38631	2.61300	7.32674
3.40504	2.63146	7.35827
3.42398	2.65000	7.39008
3.44313	2.66862	7.42218
3.46250	2.68733	7.45457
3.48209	2.70612	7.48728
3.50189	2.72501	7.52030
3.52193	2.74399	7.55365
3.54221	2.76307	7.58734
3.56270	2.78226	7.62140
3.58345	2.80156	7.65582
3.60442	2.82099	7.69062
3.62566	2.84054	7.72582
3.64713	2.86023	7.76142
3.66888	2.88007	7.79744
3.69087	2.90007	7.83389
3.71314	2.92023	7.87078
3.73566	2.94057	7.90812
3.75848	2.96109	7.94592
3.78158	2.98182	7.98419
3.80494	3.00276	8.02294
3.82862	3.02393	8.06219
3.85257	3.04534	8.10194
3.87684	3.06700	8.14220
3.90140	3.08892	8.18297
3.92630	3.11112	8.22427
3.95149	3.13361	8.26611
3.97703	3.15642	8.30849
4.00290	3.17955	8.35141
4.02909	3.20301	8.39490
4.05564	3.22682	8.43895
4.08253	3.25101	8.48356
4.10980	3.27557	8.52874
4.13741	3.30053	8.57450
4.16542	3.32590	8.62085
4.19379	3.35170	8.66779
4.22256	3.37794	8.71532
4.25172	3.40464	8.76344
4.28130	3.43181	8.81217
4.31129	3.45946	8.86150
4.34169	3.48763	8.91144
4.37254	3.51630	8.96200
4.40381	3.54551	9.01317
4.43555	3.57527	9.06496
4.46774	3.60559	9.11738
4.50041	3.63649	9.17042
4.53354	3.66797	9.22410
4.56719	3.70007	9.27840
4.60132	3.73279	9.33335
4.63598	3.76615	9.38894
4.67117	3.80016	9.44517
4.70688	3.83483	9.50205
4.74316	3.87019	9.55959
4.77998	3.90625	9.61779
4.81740	3.94302	9.67664
4.85538	3.98052	9.73617
4.89400	4.01877	9.79636
4.93320	4.05777	9.85723
4.97307	4.09756	9.91878
5.01359	4.13813	9.98102
5.05474	4.17952	10.04395
5.09661	4.22173	10.10757
5.13914	4.26479	10.17190
5.18242	4.30870	10.23694
5.22641	4.35350	10.30270
5.27118	4.39919	10.36917
5.31669	4.44579	10.43638
5.36302	4.49333	10.50433
5.41014	4.54182	10.57302
5.45813	4.59127	10.64246
5.50697	4.64173	10.71267
5.55667	4.69317	10.78364
5.60730	4.74566	10.85539
5.65883	4.79921	10.92794
5.71135	4.85384	11.00129
5.76482	4.90956	11.07544
5.81933	4.96641	11.15041
5.87485	5.02441	11.22620
5.93148	5.08354	11.30285
5.98917	5.14387	11.38035
6.04803	5.20542	11.45873
6.10806	5.26821	11.53798
6.16926	5.33228	11.61810
6.23173	5.39766	11.69914
6.29545	5.46437	11.78114
6.36051	5.53239	11.86404
6.42690	5.60184	11.94787
6.49473	5.67271	12.03269
6.56396	5.74501	12.11851
6.63473	5.81877	12.20533
6.70704	5.89408	12.29318
6.78090	5.97094	12.38205
6.85645	6.04940	12.47198
6.93366	6.12943	12.56300
7.01267	6.21117	12.65510
7.09346	6.29461	12.74838
7.17618	6.37978	12.84276
7.26079	6.46675	12.93835
7.34748	6.55556	13.03512
7.43622	6.64625	13.13311
7.52717	6.73885	13.23239
7.62038	6.83343	13.33292
7.71587	6.93003	13.43478
7.81384	7.02871	13.53797
7.91427	7.12953	13.64255
8.01738	7.23254	13.74855
8.12315	7.33782	13.85603
8.23181	7.44538	13.96498
8.34335	7.55534	14.07548
8.45802	7.66772	14.18753
8.57589	7.78264	14.30124
8.69701	7.90013	14.41659
8.82169	8.02030	14.53369
8.94991	8.14321	14.65257
9.08199	8.26894	14.77330
9.21795	8.39757	14.89591
9.35813	8.52922	15.02047
9.50254	8.66397	15.14709
9.65158	8.80189	15.27581
9.80527	8.94316	15.40669
9.96403	9.08781	15.53983
10.12797	9.23600	15.67535
10.29740	9.38784	15.81327
10.47259	9.54345	15.95376
10.65385	9.70298	16.09686
10.84148	9.86659	16.24274
11.03586	10.03438	16.39149
11.23732	10.20656	16.54324
11.44628	10.38329	16.69813
11.66315	10.56473	16.85632
11.88842	10.75112	17.01795
12.12253	10.94260	17.18321
12.36608	11.13944	17.35227
12.61959	11.34185	17.52531
12.88373	11.55010	17.70257
13.15914	11.76446	17.88428
13.44661	11.98518	18.07068
13.74689	12.21264	18.26206
14.06092	12.44711	18.45867
14.38961	12.68898	18.66087
14.73405	12.93865	18.86901
15.09536	13.19651	19.08345
15.47487	13.46309	19.30460
15.87392	13.73880	19.53293
16.29413	14.02425	19.76893
16.73716	14.32003	20.01315
17.20498	14.62679	20.26620
17.69968	14.94526	20.52875
18.22370	15.27622	20.80151
18.77966	15.62056	21.08532
19.37065	15.97928	21.38110
20.00000	16.35342	21.68984
