Material: specs / hoya / E-FD10
Optical constants. HOYA Zemax catalog 2017-04-01 (obtained from http://www.hoya-opticalworld.com)
Comments: General glass Type
Conditions: {"temperature": 293}
Properties: {"thermal_dispersion": [{"type": "formula A", "coefficients": "-3.45505e-07 0.0 0.0 0.0 0.0 0.0"}], "nd": 1.72825, "Vd": 28.32, "glass_code": 728283, "density": [{"value": 3070}], "thermal_expansion": [{"temperature_range": "243 343", "value": "9e-06"}, {"temperature_range": "293 573", "value": 1.09e-05}], "dPgF": 0.0085, "resistance": {"climatic": 1.0, "stain": 1.0, "acid": 1.0}}
Dispersion formula 3, range 0.36501 1.01398 um, coefficients 2.881518 -0.013228312 2 0.03145559 -2 0.0026851666 -4 -0.00022577544 -6 2.4693268e-05 -8
wavelength (um)	k
0.370	5.2521E-06
0.380	2.1142E-06
0.390	9.6398E-07
0.400	5.0610E-07
0.420	2.1749E-07
0.440	1.2838E-07
0.460	1.0019E-07
0.480	7.7169E-08
0.500	6.0135E-08
0.550	2.6340E-08
0.600	1.9137E-08
0.650	3.1129E-08
0.700	2.7922E-08
0.750	1.1949E-08
0.780	1.2427E-08
0.800	1.2745E-08
0.830	1.3223E-08
0.850	6.7675E-09
0.900	7.1656E-09
0.950	7.5636E-09
1.000	7.9617E-09
1.050	8.3598E-09
1.060	8.4394E-09
1.100	8.7579E-09
1.200	9.5541E-09
1.300	1.0350E-08
1.400	6.7046E-08
1.500	5.9833E-08
1.550	6.1827E-08
