Material: schott / infrared / IRG25
Optical constants. SCHOTT Infrared Chalcogenide Glasses - IRG 25 Product flyer (Version April 2017)
Conditions: {"temperature": 293}
Properties: {"thermal_dispersion": [{"type": "formula A", "coefficients": "1.80e-05 0 0 2.10e-07 0 1.67e-03"}], "density": [{"value": 4660}], "thermal_expansion": [{"temperature_range": "293 373", "value": 1.4e-05}], "specific_heat": [{"value": 330}], "thermal_conductivity": [{"value": 0.25}], "transformation_temperature": [{"value": 558}], "hardness": [{"type": "Knoop", "value": "1.13e9"}], "fracture_toughness": [{"value": "0.438e6"}], "youngs_modulus": [{"value": "22.1e9"}]}
Dispersion formula 2, range 0.85 12 um, coefficients 2.7574 3.0990 0.1596 1.6660 2045.5
wavelength (um)	k
1.0	1.6181E-06
1.5	5.2464E-07
2.0	6.1658E-07
2.5	7.5005E-07
3.0	8.5054E-07
3.5	7.0515E-07
4.0	6.4307E-07
4.5	1.6113E-06
5.0	1.7904E-06
5.5	5.2839E-07
6.0	4.7987E-07
6.5	5.7213E-07
7.0	5.0361E-07
7.5	7.8097E-07
8.0	2.5325E-06
8.5	1.2975E-06
9.0	1.5200E-06
9.5	1.5273E-06
10.0	1.4454E-06
10.5	2.6312E-06
11.0	5.6027E-06
11.5	1.4873E-05
12.0	4.8621E-05
12.5	1.1618E-04
13.0	1.2083E-04
13.5	7.0251E-05
14.0	4.0215E-05
14.5	3.8226E-05
15.0	5.4962E-05
15.5	9.2605E-05
