Material: organic / (C42H56O4S2)n - PDCBT / Kamptner-o
Optical constants. A. Kamptner, M. C. Scharber, M. Schiek. Accurate determination of the uniaxial complex refractive index and the optical band gap of polymer thin films to correlate their absorption strength and onset of absorption. Chem. Phys. Chem. e202400233 (2024) (Numerical data kindly provided by Manuela Schiek)
Comments: Ordinary ray (o)
wavelength (um)	n	k
0.19146	1.76738	1.29730E-01
0.19465	1.71677	1.18730E-01
0.19784	1.69360	1.26220E-01
0.20104	1.68534	1.19810E-01
0.20423	1.67267	1.09380E-01
0.20742	1.65853	1.02330E-01
0.21062	1.64674	9.86400E-02
0.21381	1.63886	9.57200E-02
0.21701	1.63400	9.05400E-02
0.22020	1.62914	8.12700E-02
0.22340	1.62019	6.88700E-02
0.22659	1.60516	5.69700E-02
0.22979	1.58463	4.93300E-02
0.23298	1.56029	4.82100E-02
0.23618	1.53355	5.75500E-02
0.23938	1.51386	8.11800E-02
0.24257	1.51029	1.09900E-01
0.24577	1.52117	1.32630E-01
0.24897	1.53745	1.43320E-01
0.25216	1.55159	1.46130E-01
0.25536	1.56327	1.45120E-01
0.25856	1.57300	1.41690E-01
0.26176	1.58115	1.36360E-01
0.26496	1.58758	1.29300E-01
0.26815	1.59198	1.20890E-01
0.27135	1.59394	1.11680E-01
0.27455	1.59340	1.02640E-01
0.27775	1.59084	9.45900E-02
0.28095	1.58694	8.80500E-02
0.28415	1.58269	8.30900E-02
0.28735	1.57866	7.91400E-02
0.29055	1.57492	7.57200E-02
0.29375	1.57141	7.25000E-02
0.29695	1.56793	6.92800E-02
0.30015	1.56427	6.60500E-02
0.30335	1.56031	6.28600E-02
0.30655	1.55597	5.98400E-02
0.30975	1.55128	5.71700E-02
0.31295	1.54643	5.48900E-02
0.31615	1.54150	5.29300E-02
0.31935	1.53653	5.12000E-02
0.32255	1.53150	4.96200E-02
0.32576	1.52633	4.81000E-02
0.32896	1.52087	4.66600E-02
0.33216	1.51502	4.54300E-02
0.33536	1.50881	4.45900E-02
0.33856	1.50235	4.42300E-02
0.34176	1.49573	4.43800E-02
0.34497	1.48905	4.50500E-02
0.34817	1.48245	4.62100E-02
0.35137	1.47599	4.77600E-02
0.35457	1.46966	4.95900E-02
0.35777	1.46341	5.16500E-02
0.36098	1.45720	5.39400E-02
0.36418	1.45102	5.64700E-02
0.36738	1.44486	5.92400E-02
0.37058	1.43873	6.22500E-02
0.37379	1.43263	6.55100E-02
0.37699	1.42657	6.90100E-02
0.38019	1.42056	7.27300E-02
0.38339	1.41459	7.66500E-02
0.38660	1.40864	8.07400E-02
0.38980	1.40268	8.50000E-02
0.39300	1.39664	8.94500E-02
0.39621	1.39052	9.41300E-02
0.39941	1.38431	9.90900E-02
0.40261	1.37805	1.04370E-01
0.40581	1.37177	1.09960E-01
0.40902	1.36550	1.15830E-01
0.41222	1.35919	1.21940E-01
0.41542	1.35279	1.28280E-01
0.41863	1.34620	1.34880E-01
0.42183	1.33937	1.41850E-01
0.42503	1.33230	1.49290E-01
0.42823	1.32500	1.57300E-01
0.43144	1.31750	1.65960E-01
0.43464	1.30987	1.75360E-01
0.43784	1.30214	1.85570E-01
0.44105	1.29441	1.96680E-01
0.44425	1.28675	2.08730E-01
0.44745	1.27924	2.21790E-01
0.45065	1.27198	2.35940E-01
0.45386	1.26510	2.51240E-01
0.45706	1.25876	2.67730E-01
0.46026	1.25316	2.85440E-01
0.46346	1.24850	3.04350E-01
0.46667	1.24504	3.24320E-01
0.46987	1.24292	3.45180E-01
0.47307	1.24221	3.66730E-01
0.47627	1.24295	3.88790E-01
0.47947	1.24512	4.11200E-01
0.48267	1.24863	4.33850E-01
0.48588	1.25344	4.56770E-01
0.48908	1.25961	4.79970E-01
0.49228	1.26723	5.03440E-01
0.49548	1.27646	5.27150E-01
0.49868	1.28748	5.51000E-01
0.50188	1.30060	5.74810E-01
0.50508	1.31604	5.97990E-01
0.50828	1.33355	6.19960E-01
0.51149	1.35270	6.40310E-01
0.51469	1.37289	6.58910E-01
0.51789	1.39365	6.75920E-01
0.52109	1.41462	6.91540E-01
0.52429	1.43538	7.06030E-01
0.52749	1.45546	7.20230E-01
0.53069	1.47527	7.35290E-01
0.53389	1.49589	7.51960E-01
0.53709	1.51899	7.70460E-01
0.54028	1.54641	7.89360E-01
0.54348	1.57827	8.06560E-01
0.54668	1.61385	8.20570E-01
0.54988	1.65209	8.30430E-01
0.55308	1.69177	8.35720E-01
0.55628	1.73189	8.36380E-01
0.55948	1.77156	8.32450E-01
0.56267	1.80982	8.24000E-01
0.56587	1.84542	8.11540E-01
0.56907	1.87760	7.96170E-01
0.57227	1.90607	7.78840E-01
0.57546	1.93053	7.60350E-01
0.57866	1.95027	7.41640E-01
0.58186	1.96466	7.25170E-01
0.58505	1.97510	7.13930E-01
0.58825	1.98440	7.10200E-01
0.59144	1.99688	7.15530E-01
0.59464	2.01977	7.29020E-01
0.59783	2.05840	7.42350E-01
0.60103	2.11104	7.47110E-01
0.60422	2.17313	7.37410E-01
0.60742	2.23840	7.09310E-01
0.61061	2.29768	6.61630E-01
0.61381	2.34319	6.00610E-01
0.61700	2.37328	5.32990E-01
0.62019	2.38828	4.63900E-01
0.62339	2.38958	3.97710E-01
0.62658	2.38012	3.38300E-01
0.62977	2.36450	2.86710E-01
0.63296	2.34525	2.41860E-01
0.63616	2.32372	2.02910E-01
0.63935	2.30082	1.69180E-01
0.64254	2.27723	1.40110E-01
0.64573	2.25347	1.15180E-01
0.64892	2.22993	9.39300E-02
0.65211	2.20694	7.59300E-02
0.65530	2.18472	6.07400E-02
0.65849	2.16343	4.79700E-02
0.66168	2.14313	3.72300E-02
0.66487	2.12376	2.82500E-02
0.66805	2.10532	2.08700E-02
0.67124	2.08783	1.49100E-02
0.67443	2.07133	1.02200E-02
0.67762	2.05585	6.65000E-03
0.68080	2.04139	4.03000E-03
0.68399	2.02797	2.22000E-03
0.68718	2.01557	1.05000E-03
0.69036	2.00417	3.93000E-04
0.69355	1.99374	9.10000E-05
0.69673	1.98420	5.00000E-06
0.69992	1.97547	0
0.70310	1.96740	0
0.70628	1.95986	0
0.70947	1.95281	0
0.71265	1.94617	0
0.71583	1.93990	0
0.71902	1.93398	0
0.72220	1.92836	0
0.72538	1.92302	0
0.72856	1.91793	0
0.73174	1.91309	0
0.73492	1.90846	0
0.73810	1.90404	0
0.74128	1.89980	0
0.74446	1.89574	0
0.74763	1.89184	0
0.75081	1.88809	0
0.75399	1.88449	0
0.75716	1.88102	0
0.76034	1.87769	0
0.76352	1.87447	0
0.76669	1.87136	0
0.76987	1.86836	0
0.77304	1.86546	0
0.77621	1.86265	0
0.77939	1.85994	0
0.78256	1.85732	0
0.78573	1.85477	0
0.78890	1.85231	0
0.79207	1.84991	0
0.79524	1.84759	0
0.79841	1.84534	0
0.80158	1.84315	0
0.80475	1.84102	0
0.80792	1.83896	0
0.81109	1.83695	0
0.81425	1.83499	0
0.81742	1.83309	0
0.82058	1.83123	0
0.82375	1.82943	0
0.82691	1.82767	0
0.83008	1.82595	0
0.83324	1.82428	0
0.83641	1.82265	0
0.83957	1.82105	0
0.84273	1.81950	0
0.84589	1.81798	0
0.84905	1.81650	0
0.85221	1.81505	0
0.85537	1.81364	0
0.85853	1.81225	0
0.86169	1.81090	0
0.86484	1.80958	0
0.86800	1.80829	0
0.87116	1.80702	0
0.87431	1.80578	0
0.87747	1.80457	0
0.88062	1.80338	0
0.88377	1.80222	0
0.88693	1.80108	0
0.89008	1.79997	0
0.89323	1.79887	0
0.89638	1.79780	0
0.89953	1.79675	0
0.90268	1.79572	0
0.90583	1.79471	0
0.90898	1.79372	0
0.91212	1.79275	0
0.91527	1.79180	0
0.91842	1.79086	0
0.92156	1.78994	0
0.92470	1.78904	0
0.92785	1.78815	0
0.93099	1.78728	0
0.93413	1.78643	0
0.93728	1.78559	0
0.94042	1.78476	0
0.94356	1.78395	0
0.94669	1.78316	0
0.94983	1.78238	0
0.95297	1.78161	0
0.95611	1.78085	0
0.95924	1.78011	0
0.96238	1.77937	0
0.96551	1.77865	0
0.96865	1.77795	0
0.97178	1.77725	0
0.97491	1.77656	0
0.97804	1.77589	0
0.98117	1.77523	0
0.98430	1.77457	0
0.98743	1.77393	0
0.99056	1.77330	0
0.99369	1.77267	0
0.99681	1.77206	0
0.99994	1.77146	0
1.01681	1.76834	0
1.02367	1.76714	0
1.03052	1.76598	0
1.03738	1.76486	0
1.04423	1.76377	0
1.05109	1.76271	0
1.05795	1.76168	0
1.06480	1.76068	0
1.07166	1.75971	0
1.07851	1.75876	0
1.08537	1.75784	0
1.09223	1.75695	0
1.09908	1.75608	0
1.10594	1.75524	0
1.11280	1.75441	0
1.11965	1.75361	0
1.12651	1.75283	0
1.13337	1.75207	0
1.14022	1.75132	0
1.14708	1.75060	0
1.15394	1.74989	0
1.16080	1.74920	0
1.16766	1.74853	0
1.17452	1.74787	0
1.18138	1.74723	0
1.18824	1.74661	0
1.19510	1.74599	0
1.20196	1.74540	0
1.20883	1.74481	0
1.21569	1.74424	0
1.22255	1.74368	0
1.22942	1.74314	0
1.23628	1.74260	0
1.24315	1.74208	0
1.25001	1.74157	0
1.25688	1.74107	0
1.26375	1.74058	0
1.27062	1.74010	0
1.27749	1.73963	0
1.28436	1.73917	0
1.29123	1.73872	0
1.29810	1.73828	0
1.30497	1.73784	0
1.31185	1.73742	0
1.31872	1.73700	0
1.32560	1.73660	0
1.33248	1.73619	0
1.33935	1.73580	0
1.34623	1.73542	0
1.35311	1.73504	0
1.36000	1.73467	0
1.36688	1.73431	0
1.37376	1.73395	0
1.38065	1.73360	0
1.38753	1.73326	0
1.39442	1.73292	0
1.40131	1.73259	0
1.40820	1.73226	0
1.41509	1.73194	0
1.42199	1.73163	0
1.42888	1.73132	0
1.43578	1.73102	0
1.44267	1.73072	0
1.44957	1.73042	0
1.45647	1.73014	0
1.46337	1.72985	0
1.47028	1.72957	0
1.47718	1.72930	0
1.48409	1.72903	0
1.49100	1.72877	0
1.49791	1.72850	0
1.50482	1.72825	0
1.51173	1.72799	0
1.51865	1.72775	0
1.52556	1.72750	0
1.53248	1.72726	0
1.53940	1.72703	0
1.54633	1.72679	0
1.55325	1.72656	0
1.56018	1.72634	0
1.56711	1.72611	0
1.57404	1.72590	0
1.58097	1.72568	0
1.58790	1.72547	0
1.59484	1.72526	0
1.60178	1.72505	0
1.60872	1.72485	0
1.61566	1.72465	0
1.62260	1.72445	0
1.62955	1.72426	0
1.63650	1.72407	0
1.64345	1.72388	0
1.65040	1.72369	0
1.65736	1.72351	0
1.66432	1.72333	0
1.67128	1.72315	0
1.67824	1.72297	0
1.68520	1.72280	0
