Material: organic / (C42H56O4S2)n - PDCBT / Kamptner-e
Optical constants. A. Kamptner, M. C. Scharber, M. Schiek. Accurate determination of the uniaxial complex refractive index and the optical band gap of polymer thin films to correlate their absorption strength and onset of absorption. Chem. Phys. Chem. e202400233 (2024)
Comments: Extraordinary ray (e)
wavelength (um)	n	k
0.19146	1.95209	1.70620E-01
0.19465	1.80119	1.26850E-01
0.19784	1.74031	1.44090E-01
0.20104	1.72515	1.30530E-01
0.20423	1.69958	1.03280E-01
0.20742	1.66692	8.90600E-02
0.21062	1.64159	8.71100E-02
0.21381	1.62793	9.00900E-02
0.21701	1.62578	8.90800E-02
0.22020	1.62795	7.56500E-02
0.22340	1.62002	5.05500E-02
0.22659	1.59576	2.55200E-02
0.22979	1.55766	1.11400E-02
0.23298	1.51242	1.33100E-02
0.23618	1.46720	3.58300E-02
0.23938	1.43431	7.97000E-02
0.24257	1.42465	1.33890E-01
0.24577	1.43808	0.18444
0.24897	1.46588	0.22218
0.25216	1.49932	0.24777
0.25536	1.53500	0.26383
0.25856	1.57217	2.72230E-01
0.26176	1.61082	2.72370E-01
0.26496	1.64908	2.62990E-01
0.26815	1.68392	2.43410E-01
0.27135	1.71045	2.15010E-01
0.27455	1.72623	1.82930E-01
0.27775	1.73194	1.51670E-01
0.28095	1.72985	1.24900E-01
0.28415	1.72429	1.04120E-01
0.28735	1.71811	8.77000E-02
0.29055	1.71227	7.39700E-02
0.29375	1.70688	6.14900E-02
0.29695	1.70108	4.93300E-02
0.30015	1.69404	3.78500E-02
0.30335	1.68565	2.76400E-02
0.30655	1.67614	1.92100E-02
0.30975	1.66602	1.30500E-02
0.31295	1.65626	9.20000E-03
0.31615	1.64748	7.07000E-03
0.31935	1.63989	6.07000E-03
0.32255	1.63351	5.65000E-03
0.32576	1.62817	5.32000E-03
0.32896	1.62344	4.77000E-03
0.33216	1.61894	4.06000E-03
0.33536	1.61451	3.30000E-03
0.33856	1.61007	2.62000E-03
0.34176	1.60559	2.09000E-03
0.34497	1.60108	1.81000E-03
0.34817	1.59659	1.83000E-03
0.35137	1.59217	2.14000E-03
0.35457	1.58784	2.73000E-03
0.35777	1.58362	3.60000E-03
0.36098	1.57953	4.75000E-03
0.36418	1.57558	6.15000E-03
0.36738	1.57177	7.81000E-03
0.37058	1.56811	9.73000E-03
0.37379	1.56463	1.19100E-02
0.37699	1.56134	1.43500E-02
0.38019	1.55827	1.70500E-02
0.38339	1.55545	2.00100E-02
0.38660	1.55292	2.32300E-02
0.38980	1.55076	2.67100E-02
0.39300	1.54905	3.03700E-02
0.39621	1.54783	3.41000E-02
0.39941	1.54710	3.78000E-02
0.40261	1.54683	4.13700E-02
0.40581	1.54696	4.47300E-02
0.40902	1.54744	4.77900E-02
0.41222	1.54818	5.05000E-02
0.41542	1.54906	5.27900E-02
0.41863	1.54991	5.46700E-02
0.42183	1.55060	5.62400E-02
0.42503	1.55109	5.76100E-02
0.42823	1.55134	5.88800E-02
0.43144	1.55137	6.01400E-02
0.43464	1.55118	6.14600E-02
0.43784	1.55081	6.29300E-02
0.44105	1.55032	6.46000E-02
0.44425	1.54976	6.65300E-02
0.44745	1.54924	6.87700E-02
0.45065	1.54888	7.12800E-02
0.45386	1.54874	7.40100E-02
0.45706	1.54887	7.68700E-02
0.46026	1.54927	7.98200E-02
0.46346	1.54995	8.27900E-02
0.46667	1.55089	8.57500E-02
0.46987	1.55209	8.86400E-02
0.47307	1.55353	9.14100E-02
0.47627	1.55516	9.40500E-02
0.47947	1.55695	9.65100E-02
0.48267	1.55884	9.87700E-02
0.48588	1.56074	1.00850E-01
0.48908	1.56263	1.02800E-01
0.49228	1.56449	1.04660E-01
0.49548	1.56631	1.06480E-01
0.49868	1.56809	1.08280E-01
0.50188	1.56985	1.10100E-01
0.50508	1.57161	1.11970E-01
0.50828	1.57338	1.13920E-01
0.51149	1.57520	1.15970E-01
0.51469	1.57709	1.18140E-01
0.51789	1.57910	1.20450E-01
0.52109	1.58129	1.22910E-01
0.52429	1.58373	1.25530E-01
0.52749	1.58652	1.28250E-01
0.53069	1.58971	1.30980E-01
0.53389	1.59331	1.33640E-01
0.53709	1.59730	1.36150E-01
0.54028	1.60169	1.38450E-01
0.54348	1.60643	1.40470E-01
0.54668	1.61150	1.42170E-01
0.54988	1.61686	1.43490E-01
0.55308	1.62246	1.44400E-01
0.55628	1.62827	1.44850E-01
0.55948	1.63423	1.44820E-01
0.56267	1.64028	1.44280E-01
0.56587	1.64636	1.43190E-01
0.56907	1.65240	1.41560E-01
0.57227	1.65832	1.39350E-01
0.57546	1.66401	1.36590E-01
0.57866	1.66938	1.33350E-01
0.58186	1.67438	1.29700E-01
0.58505	1.67900	1.25720E-01
0.58825	1.68321	1.21460E-01
0.59144	1.68700	1.16970E-01
0.59464	1.69038	1.12310E-01
0.59783	1.69335	1.07510E-01
0.60103	1.69591	1.02640E-01
0.60422	1.69807	9.77100E-02
0.60742	1.69984	9.27800E-02
0.61061	1.70124	8.78600E-02
0.61381	1.70228	8.30100E-02
0.61700	1.70297	7.82400E-02
0.62019	1.70335	7.35800E-02
0.62339	1.70343	6.90500E-02
0.62658	1.70323	6.46900E-02
0.62977	1.70278	6.05100E-02
0.63296	1.70213	5.65400E-02
0.63616	1.70130	5.27700E-02
0.63935	1.70034	4.92000E-02
0.64254	1.69926	4.58200E-02
0.64573	1.69809	4.26200E-02
0.64892	1.69683	3.95900E-02
0.65211	1.69551	3.67300E-02
0.65530	1.69412	3.40200E-02
0.65849	1.69269	3.14600E-02
0.66168	1.69121	2.90500E-02
0.66487	1.68971	2.67700E-02
0.66805	1.68818	2.46300E-02
0.67124	1.68663	2.26200E-02
0.67443	1.68507	2.07200E-02
0.67762	1.68350	1.89500E-02
0.68080	1.68192	1.72800E-02
0.68399	1.68035	1.57300E-02
0.68718	1.67878	1.42700E-02
0.69036	1.67721	1.29200E-02
0.69355	1.67566	1.16600E-02
0.69673	1.67413	1.04900E-02
0.69992	1.67261	9.41000E-03
0.70310	1.67111	8.41000E-03
0.70628	1.66963	7.50000E-03
0.70947	1.66818	6.66000E-03
0.71265	1.66676	5.88000E-03
0.71583	1.66537	5.18000E-03
0.71902	1.66401	4.54000E-03
0.72220	1.66268	3.96000E-03
0.72538	1.66139	3.44000E-03
0.72856	1.66013	2.97000E-03
0.73174	1.65891	2.55000E-03
0.73492	1.65772	2.17000E-03
0.73810	1.65657	1.83000E-03
0.74128	1.65546	1.53000E-03
0.74446	1.65438	1.27000E-03
0.74763	1.65334	1.05000E-03
0.75081	1.65233	8.49000E-04
0.75399	1.65136	6.79000E-04
0.75716	1.65042	5.35000E-04
0.76034	1.64952	4.13000E-04
0.76352	1.64865	3.13000E-04
0.76669	1.64782	2.31000E-04
0.76987	1.64702	1.65000E-04
0.77304	1.64625	1.13000E-04
0.77621	1.64551	7.40000E-05
0.77939	1.64480	4.50000E-05
0.78256	1.64412	2.50000E-05
0.78573	1.64346	1.20000E-05
0.78890	1.64284	5.00000E-06
0.79207	1.64224	1.00000E-06
0.79524	1.64166	0
0.79841	1.64111	0
0.80158	1.64057	0
0.80475	1.64006	0
0.80792	1.63956	0
0.81109	1.63908	0
0.81425	1.63861	0
0.81742	1.63816	0
0.82058	1.63772	0
0.82375	1.63729	0
0.82691	1.63688	0
0.83008	1.63647	0
0.83324	1.63608	0
0.83641	1.63570	0
0.83957	1.63533	0
0.84273	1.63496	0
0.84589	1.63461	0
0.84905	1.63427	0
0.85221	1.63393	0
0.85537	1.63360	0
0.85853	1.63328	0
0.86169	1.63297	0
0.86484	1.63266	0
0.86800	1.63236	0
0.87116	1.63207	0
0.87431	1.63178	0
0.87747	1.63150	0
0.88062	1.63123	0
0.88377	1.63096	0
0.88693	1.63070	0
0.89008	1.63044	0
0.89323	1.63019	0
0.89638	1.62994	0
0.89953	1.62970	0
0.90268	1.62946	0
0.90583	1.62923	0
0.90898	1.62900	0
0.91212	1.62878	0
0.91527	1.62856	0
0.91842	1.62834	0
0.92156	1.62813	0
0.92470	1.62792	0
0.92785	1.62772	0
0.93099	1.62752	0
0.93413	1.62732	0
0.93728	1.62713	0
0.94042	1.62694	0
0.94356	1.62675	0
0.94669	1.62657	0
0.94983	1.62639	0
0.95297	1.62621	0
0.95611	1.62604	0
0.95924	1.62587	0
0.96238	1.62570	0
0.96551	1.62553	0
0.96865	1.62537	0
0.97178	1.62521	0
0.97491	1.62505	0
0.97804	1.62490	0
0.98117	1.62474	0
0.98430	1.62459	0
0.98743	1.62444	0
0.99056	1.62430	0
0.99369	1.62416	0
0.99681	1.62401	0
0.99994	1.62387	0
1.01681	1.62315	0
1.02367	1.62288	0
1.03052	1.62261	0
1.03738	1.62235	0
1.04423	1.62210	0
1.05109	1.62185	0
1.05795	1.62161	0
1.06480	1.62138	0
1.07166	1.62116	0
1.07851	1.62094	0
1.08537	1.62073	0
1.09223	1.62052	0
1.09908	1.62032	0
1.10594	1.62012	0
1.11280	1.61993	0
1.11965	1.61974	0
1.12651	1.61956	0
1.13337	1.61938	0
1.14022	1.61921	0
1.14708	1.61904	0
1.15394	1.61888	0
1.16080	1.61871	0
1.16766	1.61856	0
1.17452	1.61841	0
1.18138	1.61826	0
1.18824	1.61811	0
1.19510	1.61797	0
1.20196	1.61783	0
1.20883	1.61769	0
1.21569	1.61756	0
1.22255	1.61742	0
1.22942	1.61730	0
1.23628	1.61717	0
1.24315	1.61705	0
1.25001	1.61693	0
1.25688	1.61681	0
1.26375	1.61670	0
1.27062	1.61658	0
1.27749	1.61647	0
1.28436	1.61637	0
1.29123	1.61626	0
1.29810	1.61616	0
1.30497	1.61605	0
1.31185	1.61595	0
1.31872	1.61586	0
1.32560	1.61576	0
1.33248	1.61566	0
1.33935	1.61557	0
1.34623	1.61548	0
1.35311	1.61539	0
1.36000	1.61531	0
1.36688	1.61522	0
1.37376	1.61514	0
1.38065	1.61505	0
1.38753	1.61497	0
1.39442	1.61489	0
1.40131	1.61481	0
1.40820	1.61474	0
1.41509	1.61466	0
1.42199	1.61458	0
1.42888	1.61451	0
1.43578	1.61444	0
1.44267	1.61437	0
1.44957	1.61430	0
1.45647	1.61423	0
1.46337	1.61416	0
1.47028	1.61410	0
1.47718	1.61403	0
1.48409	1.61397	0
1.49100	1.61391	0
1.49791	1.61384	0
1.50482	1.61378	0
1.51173	1.61372	0
1.51865	1.61366	0
1.52556	1.61361	0
1.53248	1.61355	0
1.53940	1.61349	0
1.54633	1.61344	0
1.55325	1.61338	0
1.56018	1.61333	0
1.56711	1.61328	0
1.57404	1.61322	0
1.58097	1.61317	0
1.58790	1.61312	0
1.59484	1.61307	0
1.60178	1.61302	0
1.60872	1.61297	0
1.61566	1.61293	0
1.62260	1.61288	0
1.62955	1.61283	0
1.63650	1.61279	0
1.64345	1.61274	0
1.65040	1.61270	0
1.65736	1.61265	0
1.66432	1.61261	0
1.67128	1.61257	0
1.67824	1.61253	0
1.68520	1.61248	0
