Material: main / MnPSe3 / Zotev
Optical constants. P. G. Zotev, Y. Wang, D. Andres-Penares, T. Severs-Millard, S. Randerson, X. Hu, L. Sortino, C. Louca, M. Brotons-Gisbert, T. Huq, S. Vezzoli, R. Sapienza, T. F. Krauss, B. D. Gerardot, A. I. Tartakovskii. Van der Waals materials for applications in nanophotonics. Laser and Photonics Rev. 17, 2200957 (2023) (Numerical data kindly provided by Panaiot Zotev)
Comments: Multilayer crystals. Isotropic. Room temperature.
wavelength (um)	n	k
0.3600	3.452	1.946
0.3632	3.536	1.831
0.3664	3.599	1.713
0.3696	3.642	1.598
0.3728	3.668	1.490
0.3760	3.681	1.390
0.3792	3.684	1.300
0.3824	3.681	1.220
0.3856	3.675	1.149
0.3888	3.667	1.087
0.3920	3.659	1.030
0.3952	3.652	0.979
0.3984	3.647	0.932
0.4016	3.642	0.886
0.4048	3.639	0.843
0.4080	3.635	0.799
0.4112	3.632	0.756
0.4144	3.627	0.713
0.4176	3.621	0.671
0.4208	3.614	0.629
0.4240	3.604	0.587
0.4272	3.592	0.547
0.4304	3.579	0.508
0.4336	3.563	0.471
0.4368	3.546	0.437
0.4400	3.528	0.404
0.4432	3.508	0.374
0.4464	3.488	0.346
0.4496	3.468	0.320
0.4528	3.447	0.297
0.4560	3.426	0.275
0.4592	3.405	0.256
0.4624	3.385	0.239
0.4656	3.365	0.223
0.4688	3.345	0.209
0.4720	3.326	0.196
0.4752	3.308	0.185
0.4784	3.290	0.175
0.4816	3.274	0.166
0.4848	3.257	0.159
0.4880	3.242	0.152
0.4912	3.228	0.146
0.4944	3.215	0.141
0.4976	3.202	0.137
0.5008	3.191	0.133
0.5040	3.181	0.129
0.5072	3.172	0.126
0.5104	3.164	0.122
0.5136	3.158	0.118
0.5168	3.152	0.114
0.5200	3.147	0.108
0.5232	3.142	0.101
0.5264	3.137	0.093
0.5296	3.132	0.084
0.5321	3.127	0.076
0.5344	3.121	0.069
0.5376	3.112	0.059
0.5408	3.102	0.049
0.5440	3.090	0.040
0.5472	3.078	0.033
0.5504	3.065	0.026
0.5536	3.052	0.022
0.5568	3.039	0.018
0.5600	3.027	0.016
0.5632	3.015	0.015
0.5664	3.004	0.014
0.5696	2.994	0.014
0.5728	2.984	0.014
0.5760	2.975	0.014
0.5792	2.967	0.015
0.5824	2.959	0.015
0.5856	2.951	0.015
0.5888	2.944	0.016
0.5920	2.936	0.017
0.5952	2.929	0.017
0.5984	2.923	0.018
0.6016	2.916	0.019
0.6048	2.909	0.020
0.6080	2.903	0.021
0.6112	2.897	0.022
0.6144	2.890	0.023
0.6176	2.884	0.024
0.6208	2.878	0.026
0.6240	2.871	0.028
0.6272	2.865	0.030
0.6304	2.858	0.032
0.6336	2.851	0.034
0.6368	2.844	0.038
0.6400	2.837	0.041
0.6432	2.829	0.046
0.6464	2.820	0.051
0.6496	2.812	0.058
0.6528	2.802	0.067
0.6560	2.792	0.079
0.6592	2.781	9.60E-02
0.6624	2.772	1.18E-01
0.6656	2.765	1.50E-01
0.6688	2.769	1.96E-01
0.6720	2.799	0.253
0.6752	2.873	0.300
0.6784	2.976	0.288
0.6816	3.045	0.214
0.6848	3.054	0.135
0.6880	3.036	0.081
0.6912	3.011	0.048
0.6944	2.987	0.029
0.6976	2.967	0.018
0.7008	2.951	0.011
0.7040	2.937	0.007
0.7072	2.925	0.004
0.7104	2.915	0.002
0.7136	2.906	0.001
0.7168	2.899	0.001
0.7200	2.892	0
0.7232	2.886	6.34E-05
0.7264	2.881	5.55E-07
0.7296	2.876	0
0.7328	2.871	0
0.7360	2.867	0
0.7392	2.863	0
0.7424	2.860	0
0.7456	2.856	0
0.7488	2.853	0
0.7520	2.850	0
0.7552	2.847	0
0.7584	2.844	0
0.7616	2.842	0
0.7648	2.839	0
0.7680	2.836	0
0.7712	2.834	0
0.7744	2.832	0
0.7776	2.830	0
0.7808	2.827	0
0.7840	2.825	0
0.7872	2.823	0
0.7904	2.821	0
0.7936	2.819	0
0.7968	2.818	0
0.8000	2.816	0
0.8032	2.814	0
0.8064	2.812	0
0.8096	2.811	0
0.8128	2.809	0
0.8160	2.807	0
0.8192	2.806	0
0.8224	2.804	0
0.8256	2.803	0
0.8288	2.801	0
0.8320	2.800	0
0.8352	2.798	0
0.8384	2.797	0
0.8416	2.796	0
0.8448	2.794	0
0.8480	2.793	0
0.8512	2.792	0
0.8544	2.791	0
0.8576	2.789	0
0.8608	2.788	0
0.8640	2.787	0
0.8672	2.786	0
0.8704	2.785	0
0.8736	2.784	0
0.8768	2.782	0
0.8800	2.781	0
0.8832	2.780	0
0.8864	2.779	0
0.8896	2.778	0
0.8928	2.777	0
0.8960	2.776	0
0.8992	2.775	0
0.9024	2.774	0
0.9056	2.773	0
0.9088	2.772	0
0.9120	2.772	0
0.9152	2.771	0
0.9184	2.770	0
0.9216	2.769	0
0.9248	2.768	0
0.9280	2.767	0
0.9312	2.766	0
0.9344	2.766	0
0.9376	2.765	0
0.9408	2.764	0
0.9440	2.763	0
0.9472	2.762	0
0.9504	2.762	0
0.9536	2.761	0
0.9568	2.760	0
0.9600	2.759	0
0.9632	2.759	0
0.9664	2.758	0
0.9696	2.757	0
0.9728	2.757	0
0.9760	2.756	0
0.9792	2.755	0
0.9824	2.754	0
0.9856	2.754	0
0.9888	2.753	0
0.9920	2.753	0
0.9952	2.752	0
0.9984	2.751	0
