Material: specs / hikari / BASF7
Optical constants. NIKON Zemax catalog 2017-11 (obtained from http://www.nikon.com)See also HIKARI glass data sheets
Conditions: {"temperature": 293}
Properties: {"nd": 1.70154, "Vd": 41.166978, "glass_code": 702412, "glass_status": "preferred", "density": [{"value": 3980}], "thermal_expansion": [{"temperature_range": "243 343", "value": 8.8e-06}], "dPgF": -0.0003}
Dispersion formula 3, range 0.4 0.7 um, coefficients 2.83515 -0.01785081 2 0.01539786 -2 0.003719055 -4 -0.0004884822 -6 3.290179e-05 -8
wavelength (um)	k
0.360	9.2214E-06
0.370	4.3273E-06
0.380	2.0960E-06
0.390	1.1069E-06
0.400	6.3169E-07
0.420	2.3896E-07
0.440	1.2475E-07
0.460	7.7690E-08
0.480	3.8389E-08
0.500	1.1955E-08
0.550	4.3790E-09
0.600	4.7770E-09
0.650	5.1751E-09
0.700	5.5732E-09
