Material: specs / hikari / BASF6
Optical constants. NIKON Zemax catalog 2017-11 (obtained from http://www.nikon.com)See also HIKARI glass data sheets
Conditions: {"temperature": 293}
Properties: {"nd": 1.667551, "Vd": 42.00945, "glass_code": 668420, "glass_status": "preferred", "density": [{"value": 3790}], "thermal_expansion": [{"temperature_range": "243 343", "value": "9e-06"}], "dPgF": 0.0006}
Dispersion formula 3, range 0.4 0.7 um, coefficients 2.718163 -0.01334622 2 0.02057831 -2 0.0009283221 -4 -1.411159e-05 -6 1.659476e-06 -8
wavelength (um)	k
0.350	9.7665E-06
0.360	4.3377E-06
0.370	2.0409E-06
0.380	1.0357E-06
0.390	5.7828E-07
0.400	3.3537E-07
0.420	1.5039E-07
0.440	9.5838E-08
0.460	6.6490E-08
0.480	4.2250E-08
0.500	2.3945E-08
0.550	4.3790E-09
0.600	1.4345E-08
0.650	2.5928E-08
0.700	-0.0000E+00
