Material: specs / hikari / E-LASFH9
Optical constants. NIKON Zemax catalog 2017-11 (obtained from http://www.nikon.com)See also HIKARI glass data sheets
Conditions: {"temperature": 296}
Properties: {"nd": 1.90265, "Vd": 35.699754, "glass_status": "preferred", "density": [{"value": 5520}], "thermal_expansion": [{"temperature_range": "243 343", "value": 7.5e-06}], "dPgF": -0.0046}
Dispersion formula 3, range 0.4 0.7 um, coefficients 3.49989132 -0.014925507 2 0.0384731987 -2 0.00184372906 -4 -9.49882953e-05 -6 1.04373643e-05 -8
wavelength (um)	k
0.400	-0.0000E+00
0.700	-0.0000E+00
