Material: specs / hikari / E-LAK9
Optical constants. NIKON Zemax catalog 2017-11 (obtained from http://www.nikon.com)See also HIKARI glass data sheets
Conditions: {"temperature": 296}
Properties: {"nd": 1.691, "Vd": 54.814122, "glass_status": "preferred", "density": [{"value": 3480}], "thermal_expansion": [{"temperature_range": "243 343", "value": 7.5e-06}], "dPgF": -0.0088}
Dispersion formula 3, range 0.4 0.7 um, coefficients 2.78211953 0.00386988792 2 0.0322993842 -2 -0.00317915886 -4 0.000435836848 -6 -2.06224134e-05 -8
wavelength (um)	k
0.400	-0.0000E+00
0.700	-0.0000E+00
