Material: specs / hikari / E-SK10
Optical constants. NIKON Zemax catalog 2017-11 (obtained from http://www.nikon.com)See also HIKARI glass data sheets
Conditions: {"temperature": 296}
Properties: {"nd": 1.622799, "Vd": 57.035463, "glass_code": 623570, "glass_status": "preferred", "density": [{"value": 3570}], "thermal_expansion": [{"temperature_range": "243 343", "value": 7.8e-06}], "dPgF": -0.0026}
Dispersion formula 3, range 0.4 0.7 um, coefficients 2.58912326 -0.0100115186 2 0.0156165805 -2 0.000328758605 -4 -9.84858579e-06 -6 7.82877169e-07 -8
wavelength (um)	k
0.400	-0.0000E+00
0.700	-0.0000E+00
