Material: main / HfO2 / Franta
Optical constants. D. Franta, D. Nečas, I. Ohlídal. Universal dispersion model for characterization of optical thin films over wide spectral range: Application to hafnia. Appl. Opt. 54, 9108–9119 (2015) (Numerical data kindly provided by Daniel Franta)
Comments: Film HfO2; Deposited by e-beam evaporation on c-Si; 112.7 nm thick film with an amorphous (very fine polycrystalline) structure; Heterogenous data processing combining ellipsometric and spectrophotometric measurements; Room temperature.
Conditions: {"film_thickness": 1.127e-07, "substrate": "c-Si"}
wavelength (um)	n	k
0.114773	1.825573971002	1.544939697738
0.117109	1.888604441294	1.513753736415
0.119492	1.945917109253	1.479567174145
0.121924	1.997354156801	1.443425429982
0.124406	2.042928183584	1.406387915352
0.126937	2.08281879337	1.369509453834
0.129521	2.117370704106	1.333828293409
0.132157	2.147097931365	1.300359495623
0.134847	2.1726988326	1.270090583934
0.137591	2.195086855442	1.243973831333
0.140391	2.215441413389	1.222905906104
0.143248	2.235281494166	1.207680037283
0.146164	2.256559303138	1.198887802287
0.149139	2.281758469136	1.196737557458
0.152174	2.313954686584	1.200748341487
0.155271	2.356748600944	1.209283855797
0.158431	2.4139098568	1.218938280205
0.161655	2.488503768876	1.223921571805
0.164945	2.581307235193	1.215863278735
0.168302	2.688676875077	1.184799340187
0.171728	2.80092255582	1.122104979829
0.175223	2.903215763694	1.024949176631
0.178789	2.980325240151	0.8994823494683
0.182427	3.022926590197	0.7593152386928
0.18614	3.030642154376	0.619683284496
0.189928	3.009914694006	0.491918325798
0.193794	2.969600421713	0.3816194372508
0.197738	2.917684815445	0.2898700061114
0.201762	2.860039009653	0.2152906967234
0.205868	2.800489850203	0.1556137936462
0.210058	2.741354313693	0.1085464437213
0.214333	2.683988589075	0.07212961638949
0.218696	2.629214221373	0.04482847673021
0.223146	2.577627089075	0.02550608091007
0.227688	2.529853331094	0.01335782776219
0.232322	2.48693835458	0.007840210068212
0.23705	2.45150479796	0.00687680512433
0.241874	2.421731943196	0.006264118413946
0.246797	2.395540617158	0.005953368921819
0.25182	2.37217134246	0.006138382807256
0.256945	2.351409957824	0.006926359557988
0.262174	2.333313249396	0.008104551471029
0.26751	2.317797956377	0.009091939759252
0.272954	2.304330152127	0.009262506106979
0.278509	2.292043573161	0.008397447456759
0.284178	2.280188088388	0.006816771922133
0.289961	2.268461755085	0.005091599127197
0.295862	2.256971790325	0.003663293564625
0.301884	2.245972120734	0.002682532623168
0.308028	2.235646987208	0.002083462010591
0.314297	2.22604979155	0.001729121670419
0.320693	2.217143227446	0.001504852510258
0.32722	2.208856082262	0.001342517738895
0.33388	2.201117257365	0.001209553142689
0.340675	2.193867054756	0.001092504464654
0.347608	2.187057294236	0.0009861214691688
0.354683	2.180648497413	0.0008881558244596
0.361901	2.174607345517	0.0007973602031958
0.369266	2.168904983064	0.0007128319678252
0.376782	2.16351595916	0.0006338196411485
0.38445	2.158417544877	0.0005596661861511
0.392274	2.153589260682	0.000489788524189
0.400258	2.149012524647	0.0004236663711228
0.408404	2.144670373626	0.0003608339190142
0.416716	2.140547228666	0.0003008728703214
0.425197	2.13662868213	0.0002434064256426
0.43385	2.1329012791	0.0001880940548978
0.44268	2.12935223712	0.0001346269350704
0.451689	2.125968926127	8.27239543138e-05
0.460882	2.122737132579	3.21281760247e-05
0.470262	2.119630385028	1.511704647723e-20
0.479833	2.116689878636	1.569928387309e-21
0.489598	2.113897529598	1.60682385867e-22
0.499563	2.111239437964	1.625116283484e-23
0.50973	2.108706279492	1.62823194246e-24
0.520104	2.106290259791	1.619909931067e-25
0.530689	2.103984463395	1.603900456559e-26
0.541489	2.101782603217	1.583761632962e-27
0.55251	2.099678892233	1.562749211343e-28
0.563754	2.097667964721	1.543784686249e-29
0.575228	2.09574482167	1.529484457103e-30
0.586935	2.093904789654	1.522234207603e-31
0.59888	2.092143488067	1.524296631916e-32
0.611068	2.090456801968	1.537945815715e-33
0.623505	2.088840858953	1.565627276263e-34
0.636194	2.087292009106	1.610148715501e-35
0.649142	2.085806807308	1.674913245474e-36
0.662354	2.08438199752	1.764214945804e-37
0.675834	2.083014498673	1.883627340192e-38
0.689588	2.081701391928	2.040530637113e-39
0.703623	2.080439909106	2.244846311698e-40
0.717943	2.079227422136	2.510082444652e-41
0.732554	2.078061433413	2.854847630165e-42
0.747463	2.076939566923	3.305077414119e-43
0.762676	2.075859560078	3.897355402357e-44
0.778198	2.074819256169	4.683935563652e-45
0.794035	2.073816597431	5.740441213767e-46
0.810196	2.072849618476	7.177830696752e-47
0.826685	2.071916440401	9.161256896067e-48
0.843509	2.071015265051	1.194022184686e-48
0.860676	2.070144369899	1.589750495867e-49
0.878193	2.069302103081	2.162975697292e-50
0.896066	2.068486878831	3.008231438733e-51
0.914302	2.067697173175	4.277829195612e-52
0.93291	2.066931519902	6.221419585928e-53
0.951897	2.066188506723	9.25543958421e-54
0.97127	2.065466771711	1.408707650868e-54
0.991037	2.064764999856	2.19393384177e-55
1.01121	2.064081919874	3.496681304866e-56
1.03179	2.063416301149	5.703725225512e-57
1.05279	2.062766950805	9.522720222676e-58
1.07421	2.062132710931	1.627359499555e-58
1.09607	2.06151245599	2.846669475198e-59
1.11838	2.060905090252	5.097110403201e-60
1.14114	2.060309545299	9.341976422536e-61
1.16437	2.059724777805	1.752539691682e-61
1.18806	2.059149767318	3.365044327818e-62
1.21224	2.05858351389	6.612722059603e-63
1.23692	2.05802503618	1.329850130945e-63
1.26209	2.057473369309	2.736645585411e-64
1.28777	2.056927563034	5.762126207075e-65
1.31398	2.056386679642	1.241209444206e-65
1.34073	2.055849792105	2.734956190456e-66
1.36801	2.055315982306	6.163665519279e-67
1.39585	2.054784339179	1.420519913609e-67
1.42426	2.054253956936	3.347398735731e-68
1.45325	2.05372393329	8.063954904663e-69
1.48282	2.053193367735	1.985612806543e-69
1.513	2.052661359768	4.996536760636e-70
1.5438	2.052127007248	1.284668329826e-70
1.57522	2.051589404373	3.374248774568e-71
1.60727	2.051047640486	9.051940059018e-72
1.63998	2.050500797854	2.479687066131e-72
1.67336	2.049947950195	6.935102334928e-73
1.70742	2.0493881606	1.979784904048e-73
1.74217	2.048820480283	5.767651363967e-74
1.77762	2.048243946346	1.714356405589e-74
1.8138	2.047657579684	5.197904746171e-75
1.85072	2.0470603839	1.607249984614e-75
1.88838	2.046451342791	5.067202721096e-76
1.92681	2.045829418473	1.628485232681e-76
1.96603	2.045193549586	5.333721000896e-77
2.00604	2.044542648502	1.779947966904e-77
2.04687	2.043875600709	6.050816520202e-78
2.08853	2.043191260405	2.094831347326e-78
2.13103	2.042488450591	7.384328412677e-79
2.1744	2.041765958712	2.649708348468e-79
2.21866	2.041022535457	9.676280661953e-80
2.26381	2.040256890956	3.595342982401e-80
2.30988	2.039467694446	1.358913886955e-80
2.35689	2.038653568064	5.223501134992e-81
2.40486	2.03781308709	2.041494572438e-81
2.4538	2.036944775116	8.110553124097e-82
2.50374	2.036047101355	3.274671279273e-82
2.5547	2.03511847743	1.343382379395e-82
2.60669	2.034157254736	5.598174911338e-83
2.65974	2.033161716835	2.369238970937e-83
2.71388	2.032130081094	1.018094625649e-83
2.76911	2.03106049048	4.441055538213e-84
2.82546	2.029951012664	1.966100158565e-84
2.88297	2.028799630588	8.839199673529e-85
2.94164	2.027604242037	5.163062817085e-84
3.00151	2.026362651903	2.130784270057e-80
3.0626	2.025072569534	6.725031671252e-77
3.12493	2.023731599183	1.518033194509e-73
3.18853	2.022337235478	2.484244152621e-70
3.25342	2.020886860048	2.986037901484e-67
3.31963	2.01937772805	2.66943837869e-64
3.38719	2.017806964282	1.796329901291e-61
3.45613	2.016171559832	9.204563267673e-59
3.52647	2.014468354057	3.631448998829e-56
3.59824	2.012694027674	1.114891633332e-53
3.67147	2.010845104703	2.690870044432e-51
3.74619	2.008917925242	5.156013815236e-49
3.82243	2.006908643771	7.917356301489e-47
3.90023	2.004813213455	9.831299345338e-45
3.9796	2.002627378763	9.957927896117e-43
4.0606	2.000346654164	8.295951595072e-41
4.14324	1.997966306041	5.730197724474e-39
4.22756	1.995481354993	3.306793528427e-37
4.3136	1.992886531006	1.606101527194e-35
4.40139	1.990176272948	6.612010220968e-34
4.49097	1.987344707927	2.322906378627e-32
4.58237	1.984385612152	7.009587329443e-31
4.67563	1.981292406639	1.828214587018e-29
4.77079	1.978058108082	4.146086497493e-28
4.86788	1.974675320296	8.222879671398e-27
4.96695	1.971136185016	1.434106583652e-25
5.06804	1.967432342995	2.211118410314e-24
5.17118	1.963554938704	3.029174468507e-23
5.27643	1.959494477739	3.705425972639e-22
5.38381	1.955240904359	4.066194599344e-21
5.49338	1.950783449966	4.020935739499e-20
5.60518	1.946110618256	3.598564795331e-19
5.71926	1.941210082364	2.926804098642e-18
5.83566	1.936068688615	2.171934366284e-17
5.95443	1.93067224882	1.476201555993e-16
6.07561	1.925005588667	9.223189804099e-16
6.19926	1.919052297784	5.315938000632e-15
6.32543	1.912794729362	2.836007722427e-14
6.45416	1.906213832099	1.404980683587e-13
6.58552	1.899288909308	6.483643274424e-13
6.71955	1.891997553152	2.795439090755e-12
6.8563	1.884315370232	1.129295787689e-11
6.99584	1.876215806668	4.286345026663e-11
7.13822	1.867669778594	1.532624654904e-10
7.2835	1.858645418792	5.175541849839e-10
7.43173	1.849107700465	1.654648644173e-09
7.58298	1.839017844776	5.019989576541e-09
7.73731	1.828332999619	1.448519617804e-08
7.89478	1.817005425114	3.983916479339e-08
8.05545	1.804981581372	1.046560265348e-07
8.2194	1.792201343822	2.631214966657e-07
8.38668	1.778596800107	6.343434935585e-07
8.55736	1.764089962211	1.469190618101e-06
8.73152	1.748591866511	3.274957435514e-06
8.90922	1.731998626317	7.038813610403e-06
9.09054	1.714188695732	1.461613322099e-05
9.27555	1.695017496127	2.940096331733e-05
9.46433	1.674310186435	5.753980098197e-05
9.65695	1.651851744989	0.0001104049968354
9.85349	1.62737014849	0.0002103474044637
10.054	1.600513031238	0.0004047744116948
10.2586	1.570814199181	0.0007988293312104
10.4674	1.5376638935	0.001622385941458
10.6805	1.500302179785	0.003345896620567
10.8978	1.457889683962	0.006841464575347
11.1196	1.409704395146	0.01354489507219
11.3459	1.35549805092	0.02552147471813
11.5768	1.295970395417	0.04529834897925
11.8124	1.233210091053	0.0753285434342
12.0529	1.170805058723	0.1170352057143
12.2982	1.113178982935	0.1696491974877
12.5484	1.063881883406	0.2295828056678
12.8038	1.02344588935	0.2914103275946
13.0644	0.9885325198983	0.3504972074262
13.3303	0.953342803542	0.4055328168422
13.6016	0.9122276842711	0.4593853508854
13.8784	0.8621151246658	0.518382200156
14.1609	0.8044261028838	0.5905074841161
14.4491	0.74604464472	0.6821699298367
14.7431	0.6973038476884	0.794054071963
15.0432	0.6664442265166	0.9201015395358
15.3493	0.6558761436887	1.051766067305
15.6617	0.6635632897785	1.182413161153
15.9805	0.6859608274381	1.308315498319
16.3057	0.7196611341946	1.427845943772
16.6376	0.7618813284517	1.540573747939
16.9762	0.8104723378267	1.646695045402
17.3217	0.863808394055	1.746725317623
17.6742	0.9206762930689	1.841350873008
18.0339	0.9802009576516	1.931358060008
18.4009	1.041809221047	2.017595477751
18.7754	1.105223330255	2.100937433711
19.1575	1.170467662506	2.182230550202
19.5474	1.237867942058	2.262216904178
19.9453	1.308022243149	2.341439833614
20.3512	1.381729353613	2.420150710951
20.7654	1.459872918684	2.498242746149
21.188	1.543276256858	2.575237138035
21.6192	1.632557017893	2.650336034058
22.0592	1.728016767405	2.722538540623
22.5082	1.829594985305	2.790796835097
22.9662	1.936901444916	2.854176182708
23.4336	2.049320688734	2.911979612647
23.9106	2.166163391764	2.963805604257
24.3972	2.286826568181	3.009522953611
24.8937	2.410920688967	3.04916723089
25.4004	2.538328016586	3.082783506776
25.9173	2.669172267725	3.110255509788
26.4448	2.803702142866	3.131167372844
26.983	2.942114613813	3.144737608569
27.5321	3.084360826847	3.149846644851
28.0925	3.229982063351	3.14515453048
28.6642	3.378013895007	3.129282590274
29.2476	3.526977493581	3.101019281942
29.8428	3.674955410358	3.059509360604
30.4502	3.81973201334	3.004394677644
31.0699	3.958969873993	2.935889439289
31.7022	4.090392692728	2.854787290542
32.3474	4.211950420582	2.762408743397
33.0058	4.321950043084	2.660504017486
33.6775	4.419143587842	2.551128686656
34.3629	4.502771819688	2.43650874909
35.0623	4.572567175423	2.318909093459
35.7758	4.628722712374	2.200515841148
36.504	4.671835448893	2.083339427732
37.2469	4.702832824182	1.969141992345
38.0049	4.722890471588	1.859389905138
38.7784	4.733348413237	1.755230164338
39.5676	4.735631408495	1.657487923124
40.3729	4.731177720402	1.566681495439
41.1946	4.72137913715	1.483050747237
42.033	4.707533783973	1.40659471045
42.8884	4.690812133425	1.337114473603
43.7613	4.672235694574	1.274257829933
44.6519	4.652667146701	1.217562736179
45.5606	4.632810184641	1.166497294442
46.4879	4.613217056779	1.120494660887
47.434	4.594301688937	1.078981956526
48.3994	4.576356372116	1.04140286018
49.3844	4.559570212296	1.007234064993
50.3895	4.544047851444	0.9759961546786
51.415	4.529827323733	0.9472596971386
52.4614	4.516896266761	0.9206474699937
53.5291	4.505206031265	0.8958337449828
54.6185	4.494683502	0.8725414932712
55.7301	4.485240648234	0.8505382594592
56.8643	4.476781963926	0.8296313141508
58.0216	4.469210042753	0.8096625533584
59.2025	4.462429572453	0.7905034817358
60.4074	4.456350038199	0.7720505038106
61.6368	4.450887407558	0.7542206563039
62.8912	4.445965039028	0.736947845316
64.1712	4.441514019771	0.7201796024256
65.4772	4.437473100727	0.7038743404694
66.8098	4.433788362253	0.6879990694378
68.1695	4.430412712433	0.6725275222713
69.5568	4.427305294022	0.6574386365423
70.9725	4.42443085456	0.6427153387877
72.4169	4.421759117448	0.6283435817843
73.8907	4.419264178858	0.6143115901294
75.3945	4.416923945397	0.6006092752138
76.929	4.414719621075	0.5872277862897
78.4946	4.412635246366	0.5741591698453
80.0921	4.410657289631	0.5613961142395
81.7222	4.408774288439	0.5489317608932
83.3854	4.40697653742	0.5367595669114
85.0824	4.405255818391	0.5248732071013
86.814	4.403605168376	0.5132665058508
88.5809	4.402018681159	0.5019333913936
90.3836	4.400491338205	0.4908678666486
92.2231	4.399018865076	0.4800639921506
94.1001	4.397597609878	0.4695158776325
96.0152	4.396224440638	0.4592176796549
97.9693	4.394896658874	0.4491636033169
99.9631	4.393611926882	0.4393479065988
101.998	4.392368206805	0.4297649062478
104.073	4.391163709598	0.4204089844396
106.192	4.389996852344	0.4112745956627
108.353	4.38886622273	0.4023562734326
110.558	4.387770549392	0.3936486365958
112.808	4.38670867734	0.3851463950461
115.104	4.385679547618	0.3768443547682
117.446	4.384682180415	0.3687374221707
119.837	4.383715661244	0.3608206076887
122.276	4.382779129483	0.3530890286896
124.764	4.381871769089	0.3455379116984
