Material: main / Ge2Sb2Te5 / Frantz-crystal
Optical constants. J. A. Frantz, J. D. Myers, A. Clabeau, R. Y. Bekele, N. Hong, M. A. Vincenti, M. Gandolfi, J. S. Sanghera. Optical constants of germanium antimony telluride (GST) in amorphous, crystalline, and intermediate states. Opt. Mater. Express 13, 3631-3640 (2023) (See supplemental materials)
Comments: Crystalline Ge2Sb2Te5.
wavelength (um)	n	k
0.35028	1.677	2.634
0.35985	1.744	2.700
0.36941	1.812	2.762
0.37898	1.882	2.822
0.38854	1.952	2.879
0.39811	2.023	2.933
0.40767	2.096	2.985
0.41724	2.169	3.034
0.42680	2.242	3.080
0.43636	2.316	3.125
0.44593	2.391	3.166
0.45549	2.466	3.206
0.46505	2.542	3.243
0.47461	2.618	3.277
0.48417	2.694	3.310
0.49373	2.770	3.340
0.50328	2.846	3.368
0.51284	2.923	3.393
0.52239	2.999	3.417
0.53195	3.075	3.438
0.54150	3.151	3.457
0.55105	3.227	3.475
0.56060	3.303	3.490
0.57014	3.378	3.503
0.57969	3.453	3.514
0.58923	3.528	3.523
0.59877	3.602	3.530
0.60831	3.675	3.536
0.61784	3.748	3.539
0.62738	3.820	3.541
0.63691	3.892	3.541
0.64643	3.962	3.539
0.65596	4.032	3.536
0.66548	4.102	3.531
0.67500	4.170	3.525
0.68452	4.238	3.517
0.69404	4.304	3.507
0.70355	4.370	3.496
0.71306	4.435	3.484
0.72256	4.499	3.471
0.73207	4.562	3.456
0.74156	4.624	3.440
0.75106	4.684	3.422
0.76055	4.744	3.404
0.77004	4.803	3.384
0.77952	4.860	3.364
0.78901	4.916	3.342
0.79848	4.972	3.320
0.80796	5.026	3.296
0.81742	5.079	3.272
0.82689	5.131	3.247
0.83635	5.182	3.221
0.84581	5.231	3.194
0.85526	5.280	3.167
0.86471	5.327	3.139
0.87415	5.373	3.110
0.88359	5.418	3.081
0.89302	5.462	3.051
0.90245	5.505	3.021
0.91188	5.547	2.990
0.92130	5.587	2.959
0.93071	5.627	2.928
0.94012	5.665	2.896
0.94952	5.702	2.864
0.95892	5.738	2.831
0.96832	5.774	2.798
0.97770	5.808	2.765
0.98709	5.841	2.732
0.99646	5.873	2.699
1.0218	5.954	2.608
1.0422	6.015	2.533
1.0627	6.071	2.459
1.0832	6.123	2.384
1.1037	6.171	2.309
1.1242	6.214	2.235
1.1447	6.254	2.161
1.1653	6.291	2.087
1.1858	6.324	2.014
1.2064	6.353	1.942
1.2270	6.379	1.871
1.2475	6.402	1.801
1.2681	6.422	1.732
1.2887	6.439	1.664
1.3094	6.454	1.597
1.3300	6.466	1.531
1.3506	6.475	1.467
1.3713	6.483	1.404
1.3919	6.488	1.342
1.4126	6.490	1.282
1.4333	6.491	1.223
1.4540	6.490	1.166
1.4747	6.488	1.110
1.4954	6.483	1.056
1.5161	6.477	1.003
1.5368	6.470	0.952
1.5576	6.461	0.902
1.5783	6.451	0.854
1.5991	6.439	0.807
1.6199	6.427	0.761
1.6407	6.413	0.717
1.6600	6.399	0.678
1.6754	6.388	0.648
1.6900	6.376	0.619
1.7499	6.326	0.512
1.8097	6.269	0.416
1.8698	6.208	0.333
1.9300	6.143	0.260
1.9900	6.077	0.200
2.0498	6.011	0.151
2.1098	5.944	0.112
2.1699	5.879	0.085
2.2296	5.818	0.068
2.2896	5.761	0.061
2.3498	5.715	0.062
2.4099	5.678	0.065
2.4696	5.647	0.067
2.5298	5.619	0.069
2.5899	5.595	0.071
2.6494	5.573	0.073
2.7096	5.553	0.075
2.7697	5.535	0.076
2.8294	5.519	0.078
2.8893	5.504	0.080
2.9493	5.491	0.082
3.0092	5.478	0.084
3.0698	5.466	0.086
3.1291	5.456	0.088
3.1897	5.446	0.090
3.2497	5.436	0.092
3.3099	5.427	0.094
3.3690	5.419	0.096
3.4292	5.412	0.097
3.4892	5.405	0.099
3.5489	5.398	0.101
3.6094	5.391	0.103
3.6694	5.385	0.105
3.7288	5.380	0.107
3.7888	5.375	0.109
3.8492	5.369	0.111
3.9087	5.365	0.112
3.9685	5.360	0.114
4.0287	5.356	0.116
4.0890	5.352	0.118
4.1496	5.348	0.120
4.2085	5.344	0.122
4.2692	5.341	0.123
4.3298	5.337	0.125
4.3884	5.334	0.127
4.4487	5.331	0.129
4.5086	5.328	0.131
4.5682	5.325	0.133
4.6294	5.323	0.134
4.6880	5.320	0.136
4.7481	5.318	0.138
4.8097	5.315	0.140
4.8685	5.313	0.142
4.9286	5.311	0.144
4.9879	5.309	0.145
5.0486	5.307	0.147
5.1083	5.305	0.149
5.1694	5.303	0.151
5.2294	5.301	0.153
5.2880	5.299	0.155
5.3480	5.298	0.156
5.4094	5.296	0.158
5.4693	5.295	0.160
5.5276	5.293	0.162
5.5872	5.292	0.164
5.6480	5.290	0.165
5.7071	5.289	0.167
5.7674	5.288	0.169
5.8290	5.286	0.171
5.8886	5.285	0.173
5.9494	5.284	0.175
6.0080	5.283	0.176
6.0678	5.282	0.178
6.1287	5.281	0.180
6.1872	5.280	0.182
6.2469	5.279	0.183
6.3077	5.278	0.185
6.3697	5.277	0.187
6.4289	5.276	0.189
6.4892	5.275	0.191
6.5466	5.275	0.193
6.6092	5.274	0.194
6.6687	5.273	0.196
6.7293	5.272	0.198
6.7865	5.271	0.200
6.8493	5.271	0.202
6.9086	5.270	0.203
6.9690	5.269	0.205
7.0256	5.269	0.207
7.0881	5.268	0.209
7.1467	5.268	0.211
7.2063	5.267	0.212
7.2669	5.266	0.214
7.3285	5.266	0.216
7.3859	5.265	0.218
7.4496	5.265	0.220
7.5089	5.264	0.221
7.5692	5.264	0.223
7.6249	5.263	0.225
7.6870	5.263	0.227
7.7445	5.262	0.228
7.8086	5.262	0.230
7.8678	5.261	0.232
7.9280	5.261	0.234
7.9891	5.261	0.236
8.0449	5.260	0.237
8.1078	5.260	0.239
8.1652	5.260	0.241
8.2235	5.259	0.243
8.2892	5.259	0.245
8.3493	5.258	0.247
8.4034	5.258	0.248
8.4652	5.258	0.250
8.5278	5.258	0.252
8.5843	5.257	0.254
8.6487	5.257	0.256
8.7068	5.257	0.257
8.7657	5.256	0.259
8.8254	5.256	0.261
8.8859	5.256	0.263
8.9472	5.256	0.264
9.0094	5.255	0.266
9.0645	5.255	0.268
9.1284	5.255	0.270
9.1850	5.255	0.272
9.2423	5.254	0.273
9.3086	5.254	0.275
9.3675	5.254	0.277
9.4271	5.254	0.279
9.4875	5.254	0.281
9.5486	5.253	0.282
9.6017	5.253	0.284
9.6643	5.253	0.286
9.7278	5.253	0.288
9.7829	5.253	0.289
9.8479	5.253	0.291
9.9043	5.253	0.293
9.9614	5.252	0.295
10.029	5.252	0.297
10.087	5.252	0.298
10.147	5.252	0.300
10.207	5.252	0.302
10.267	5.252	0.304
10.328	5.252	0.306
10.391	5.251	0.307
10.453	5.251	0.309
10.517	5.251	0.311
10.581	5.251	0.313
10.647	5.251	0.315
10.713	5.251	0.317
10.779	5.251	0.319
10.847	5.251	0.321
10.916	5.251	0.323
10.985	5.251	0.325
11.055	5.251	0.327
11.126	5.250	0.329
11.199	5.250	0.332
11.272	5.250	0.334
11.346	5.250	0.336
11.421	5.250	0.338
11.496	5.250	0.340
11.573	5.250	0.343
11.651	5.250	0.345
11.731	5.250	0.347
11.811	5.250	0.350
11.892	5.250	0.352
11.974	5.250	0.355
12.058	5.250	0.357
12.143	5.250	0.360
12.229	5.250	0.362
12.316	5.250	0.365
12.404	5.250	0.367
12.494	5.250	0.370
12.585	5.250	0.373
12.677	5.250	0.375
12.771	5.250	0.378
12.866	5.250	0.381
12.962	5.250	0.384
13.060	5.250	0.387
13.160	5.250	0.390
13.261	5.250	0.393
13.363	5.250	0.396
13.467	5.250	0.399
13.573	5.250	0.402
13.680	5.250	0.405
13.790	5.250	0.408
13.901	5.251	0.412
14.013	5.251	0.415
14.128	5.251	0.418
14.244	5.251	0.422
14.363	5.251	0.425
14.483	5.251	0.429
14.605	5.251	0.432
14.730	5.251	0.436
14.856	5.252	0.440
14.985	5.252	0.444
15.116	5.252	0.448
15.250	5.252	0.452
15.385	5.252	0.456
15.524	5.252	0.460
15.664	5.253	0.464
15.808	5.253	0.468
15.954	5.253	0.472
16.102	5.253	0.477
16.254	5.254	0.481
16.408	5.254	0.486
16.565	5.254	0.490
16.726	5.255	0.495
16.889	5.255	0.500
17.056	5.255	0.505
17.226	5.256	0.510
17.399	5.256	0.515
17.576	5.256	0.520
17.757	5.257	0.525
17.941	5.257	0.531
18.129	5.258	0.536
18.321	5.258	0.542
18.518	5.259	0.548
18.718	5.259	0.554
18.923	5.260	0.560
19.132	5.260	0.566
19.347	5.261	0.572
19.566	5.261	0.578
19.790	5.262	0.585
20.019	5.262	0.592
20.254	5.263	0.599
20.494	5.264	0.606
20.740	5.265	0.613
20.992	5.265	0.620
21.250	5.266	0.628
21.514	5.267	0.635
21.785	5.268	0.643
22.063	5.269	0.651
22.349	5.270	0.660
22.642	5.271	0.668
22.942	5.272	0.677
23.251	5.273	0.686
23.568	5.274	0.695
23.894	5.275	0.705
24.229	5.276	0.714
24.573	5.277	0.724
24.927	5.279	0.735
25.292	5.280	0.745
25.668	5.282	0.756
26.055	5.283	0.767
26.454	5.285	0.779
26.935	5.287	0.793
27.361	5.288	0.805
27.801	5.290	0.818
28.885	5.295	0.849
29.376	5.297	0.863
30.057	5.300	0.882
31.234	5.306	0.916
