Material: isuzu / filter / IEC518
Optical constants. Data kindly provided by Koichiro Ikeda, ISUZU GLASS LTD. Nov 2024. See also Isuzu Glass Products
Comments: Blue filter for color compensation (IEC series). Glass type: P2O5-Al2O3.
Properties: {"nd": 1.531, "Vd": 44.3, "density": [{"value": 2660}], "thermal_expansion": [{"temperature_range": "373 573", "value": 7.2e-06}], "transformation_temperature": [{"value": 773}], "durability": 1, "hardness": [{"type": "Knoop", "value": "5.21e9"}]}
wavelength (um)	n	k
0.300	1.56193	1.30E-04
0.304	1.57052	1.36E-04
0.308	1.57631	9.98E-05
0.312	1.56925	7.90E-05
0.316	1.57631	5.94E-05
0.320	1.58039	4.50E-05
0.324	1.56283	3.42E-05
0.328	1.55706	2.61E-05
0.332	1.55811	1.97E-05
0.336	1.55466	1.50E-05
0.340	1.56343	1.18E-05
0.344	1.56507	9.48E-06
0.348	1.56649	7.50E-06
0.352	1.55984	6.10E-06
0.356	1.55691	5.16E-06
0.360	1.55811	4.35E-06
0.364	1.55976	3.67E-06
0.368	1.55826	3.43E-06
0.372	1.55481	2.94E-06
0.376	1.55714	2.74E-06
0.380	1.55856	2.58E-06
0.384	1.55459	2.47E-06
0.388	1.55684	2.25E-06
0.392	1.55218	1.94E-06
0.396	1.55444	1.78E-06
0.400	1.55173	1.77E-06
0.404	1.54969	1.78E-06
0.408	1.55128	1.71E-06
0.412	1.54977	1.54E-06
0.416	1.54894	1.49E-06
0.420	1.54834	1.40E-06
0.424	1.54637	1.35E-06
0.428	1.54668	1.40E-06
0.432	1.54781	1.23E-06
0.436	1.54562	1.25E-06
0.440	1.54494	1.10E-06
0.444	1.54577	1.04E-06
0.448	1.54547	1.05E-06
0.452	1.54350	9.92E-07
0.456	1.54176	9.89E-07
0.460	1.54176	9.86E-07
0.464	1.54108	9.32E-07
0.468	1.54244	8.81E-07
0.472	1.54077	8.19E-07
0.476	1.54032	8.84E-07
0.480	1.53956	8.13E-07
0.484	1.54009	7.84E-07
0.488	1.53926	7.46E-07
0.492	1.53971	7.20E-07
0.496	1.53827	7.06E-07
0.500	1.53872	7.78E-07
0.504	1.53781	8.28E-07
0.508	1.53720	8.66E-07
0.512	1.53758	8.53E-07
0.516	1.53736	9.28E-07
0.520	1.53652	1.06E-06
0.524	1.53606	1.20E-06
0.528	1.53553	1.43E-06
0.532	1.53614	1.54E-06
0.536	1.53500	1.86E-06
0.540	1.53492	2.20E-06
0.544	1.53485	2.51E-06
0.548	1.53447	2.95E-06
0.552	1.53416	3.44E-06
0.556	1.53409	4.09E-06
0.560	1.53363	4.90E-06
0.564	1.53294	5.72E-06
0.568	1.53294	6.63E-06
0.572	1.53226	7.75E-06
0.576	1.53210	9.01E-06
0.580	1.53233	1.04E-05
0.584	1.53149	1.18E-05
0.588	1.53126	1.36E-05
0.592	1.53165	1.54E-05
0.596	1.53149	1.74E-05
0.600	1.53073	1.97E-05
0.604	1.53027	2.21E-05
0.608	1.52997	2.47E-05
0.612	1.52981	2.76E-05
0.616	1.53020	3.06E-05
0.620	1.52882	3.38E-05
0.624	1.52882	3.71E-05
0.628	1.52928	4.08E-05
0.632	1.52897	4.45E-05
0.636	1.52882	4.86E-05
0.640	1.52851	5.26E-05
0.644	1.52920	5.70E-05
0.648	1.52882	6.14E-05
0.652	1.52805	6.63E-05
0.656	1.52775	7.12E-05
0.660	1.52798	7.65E-05
0.664	1.52775	8.20E-05
0.668	1.52798	8.74E-05
0.672	1.52828	9.28E-05
0.676	1.52783	9.87E-05
0.680	1.52683	1.05E-04
0.684	1.52714	1.11E-04
0.688	1.52691	1.17E-04
0.692	1.52767	1.23E-04
0.696	1.52729	1.29E-04
0.700	1.52714	1.36E-04
0.704	1.52637	1.43E-04
0.708	1.52691	1.49E-04
0.712	1.52691	1.56E-04
0.716	1.52614	1.63E-04
0.720	1.52668	1.70E-04
0.724	1.52583	1.77E-04
0.728	1.52652	1.83E-04
0.732	1.52538	1.90E-04
0.736	1.52568	1.96E-04
0.740	1.52576	2.03E-04
0.744	1.52645	2.09E-04
0.748	1.52538	2.16E-04
0.752	1.52499	2.22E-04
0.756	1.52606	2.29E-04
0.760	1.52583	2.35E-04
0.764	1.52530	2.40E-04
0.768	1.52522	2.46E-04
0.772	1.52583	2.53E-04
0.776	1.52499	2.58E-04
0.780	1.52683	2.63E-04
0.784	1.52576	2.69E-04
0.788	1.52484	2.74E-04
0.792	1.52553	2.80E-04
0.796	1.52438	2.81E-04
0.800	1.52576	2.86E-04
0.804	1.52599	2.92E-04
0.808	1.52614	2.99E-04
0.812	1.52583	3.00E-04
0.816	1.52415	3.04E-04
0.820	1.52476	3.09E-04
0.824	1.52599	3.16E-04
0.828	1.52660	3.21E-04
0.832	1.52492	3.19E-04
0.836	1.52446	3.24E-04
0.840	1.52161	3.38E-04
0.844	1.51861	3.30E-04
0.848	1.52315	3.43E-04
0.852	1.52637	3.65E-04
0.856	1.52568	3.77E-04
0.860	1.52192	3.57E-04
0.864	1.52599	4.29E-04
0.868	1.52100	3.50E-04
0.872	1.52376	3.88E-04
0.876	1.52284	5.07E-04
0.880	1.52438	4.46E-04
0.884	1.52300	3.76E-04
0.888	1.52208	5.55E-04
0.892	1.52461	3.68E-04
0.896	1.52469	3.83E-04
0.900	1.52461	3.68E-04
0.904	1.52507	3.86E-04
0.908	1.52453	4.18E-04
0.912	1.52430	3.65E-04
0.916	1.52346	3.63E-04
0.920	1.52522	3.96E-04
0.924	1.52507	3.48E-04
0.928	1.52361	3.67E-04
0.932	1.52530	3.78E-04
0.936	1.52407	3.70E-04
0.940	1.52415	3.71E-04
0.944	1.52223	3.76E-04
0.948	1.52407	3.72E-04
0.952	1.52269	3.61E-04
0.956	1.52215	3.72E-04
0.960	1.52484	3.57E-04
0.964	1.52323	3.62E-04
0.968	1.52277	3.57E-04
0.972	1.52323	3.84E-04
0.976	1.52376	3.61E-04
0.980	1.52292	3.53E-04
0.984	1.52399	3.54E-04
0.988	1.52323	3.58E-04
0.992	1.52092	3.62E-04
0.996	1.52131	3.60E-04
1.000	1.52192	3.43E-04
1.004	1.52238	3.47E-04
1.008	1.52292	3.48E-04
1.012	1.52231	3.44E-04
1.016	1.52169	3.51E-04
1.020	1.52100	3.45E-04
1.024	1.52146	3.39E-04
1.028	1.52115	3.47E-04
1.032	1.52246	3.46E-04
1.036	1.52215	3.32E-04
1.040	1.52161	3.35E-04
1.044	1.52154	3.25E-04
1.048	1.52123	3.34E-04
1.052	1.52092	3.24E-04
1.056	1.52161	3.32E-04
1.060	1.52131	3.19E-04
1.064	1.52046	3.21E-04
1.068	1.52108	3.22E-04
1.072	1.52131	3.10E-04
1.076	1.51992	3.17E-04
1.080	1.52131	3.18E-04
1.084	1.52177	3.08E-04
1.088	1.52069	3.06E-04
1.092	1.52008	3.04E-04
1.096	1.51915	3.01E-04
1.100	1.51969	2.99E-04
1.104	1.51969	2.92E-04
1.108	1.52023	2.94E-04
1.112	1.52031	2.90E-04
1.116	1.51915	2.89E-04
1.120	1.51969	2.86E-04
1.124	1.51985	2.84E-04
1.128	1.52000	2.81E-04
1.132	1.51962	2.81E-04
1.136	1.51908	2.79E-04
1.140	1.51946	2.76E-04
1.144	1.51985	2.75E-04
1.148	1.52031	2.72E-04
1.152	1.52015	2.67E-04
1.156	1.51923	2.66E-04
1.160	1.51923	2.64E-04
1.164	1.51954	2.64E-04
1.168	1.52038	2.60E-04
1.172	1.51861	2.60E-04
1.176	1.52038	2.54E-04
1.180	1.52038	2.54E-04
1.184	1.51869	2.53E-04
1.188	1.51838	2.49E-04
1.192	1.51885	2.48E-04
1.196	1.51915	2.44E-04
1.200	1.51892	2.43E-04
1.204	1.51831	2.40E-04
1.208	1.51861	2.38E-04
1.212	1.51861	2.36E-04
1.216	1.51723	2.33E-04
1.220	1.51792	2.30E-04
1.224	1.51938	2.28E-04
1.228	1.51908	2.27E-04
1.232	1.51653	2.25E-04
1.236	1.51877	2.23E-04
1.240	1.51861	2.20E-04
1.244	1.51915	2.19E-04
1.248	1.51846	2.16E-04
1.252	1.51885	2.15E-04
1.256	1.51746	2.13E-04
1.260	1.51808	2.10E-04
1.264	1.51746	2.08E-04
1.268	1.51808	2.06E-04
1.272	1.51831	2.03E-04
1.276	1.51869	2.02E-04
1.280	1.51769	2.00E-04
1.284	1.51854	1.98E-04
1.288	1.51715	1.96E-04
1.292	1.51730	1.92E-04
1.296	1.51661	1.92E-04
1.300	1.51723	1.90E-04
1.304	1.51692	1.88E-04
1.308	1.51792	1.85E-04
1.312	1.51669	1.84E-04
1.316	1.51592	1.82E-04
1.320	1.51676	1.79E-04
1.324	1.51738	1.77E-04
1.328	1.51599	1.75E-04
1.332	1.51607	1.74E-04
1.336	1.51730	1.72E-04
1.340	1.51738	1.70E-04
1.344	1.51653	1.68E-04
1.348	1.51630	1.66E-04
1.352	1.51568	1.65E-04
1.356	1.51530	1.63E-04
1.360	1.51522	1.61E-04
1.364	1.51453	1.58E-04
1.368	1.51484	1.56E-04
1.372	1.51561	1.55E-04
1.376	1.51545	1.53E-04
1.380	1.51630	1.51E-04
1.384	1.51561	1.50E-04
1.388	1.51599	1.48E-04
1.392	1.51399	1.46E-04
1.396	1.51530	1.45E-04
1.400	1.51422	1.43E-04
1.404	1.51399	1.41E-04
1.408	1.51491	1.40E-04
1.412	1.51383	1.38E-04
1.416	1.51314	1.36E-04
1.420	1.51368	1.35E-04
1.424	1.51314	1.34E-04
1.428	1.51321	1.32E-04
1.432	1.51252	1.30E-04
1.436	1.51283	1.29E-04
1.440	1.51252	1.28E-04
1.444	1.51259	1.26E-04
1.448	1.51136	1.24E-04
1.452	1.51221	1.23E-04
1.456	1.51182	1.22E-04
1.460	1.51190	1.20E-04
1.464	1.51228	1.19E-04
1.468	1.51213	1.17E-04
1.472	1.51120	1.16E-04
1.476	1.51190	1.14E-04
1.480	1.51182	1.13E-04
1.484	1.51089	1.11E-04
1.488	1.51105	1.10E-04
1.492	1.51112	1.08E-04
1.496	1.51143	1.07E-04
1.500	1.51112	1.06E-04
