Material: isuzu / filter / IEC508
Optical constants. Data kindly provided by Koichiro Ikeda, ISUZU GLASS LTD. Nov 2024. See also Isuzu Glass Products
Comments: Blue filter for color compensation (IEC series). Glass type: P2O5-Al2O3.
Properties: {"nd": 1.532, "Vd": 53.2, "density": [{"value": 2640}], "thermal_expansion": [{"temperature_range": "373 573", "value": 9.4e-06}], "transformation_temperature": [{"value": 705}], "durability": 2, "hardness": [{"type": "Knoop", "value": "4.80e9"}]}
wavelength (um)	n	k
0.300	1.57282	1.17E-04
0.304	1.56500	8.97E-05
0.308	1.57267	6.43E-05
0.312	1.56306	4.80E-05
0.316	1.55954	3.58E-05
0.320	1.56686	2.60E-05
0.324	1.56134	1.95E-05
0.328	1.56977	1.47E-05
0.332	1.55195	1.13E-05
0.336	1.55444	8.71E-06
0.340	1.56119	6.58E-06
0.344	1.56515	5.45E-06
0.348	1.55646	4.46E-06
0.352	1.55729	3.69E-06
0.356	1.56051	3.34E-06
0.360	1.55834	2.82E-06
0.364	1.55781	2.52E-06
0.368	1.55391	2.42E-06
0.372	1.55601	2.23E-06
0.376	1.55331	1.94E-06
0.380	1.55526	1.84E-06
0.384	1.55308	1.80E-06
0.388	1.55338	1.60E-06
0.392	1.54917	1.58E-06
0.396	1.54932	1.49E-06
0.400	1.55180	1.44E-06
0.404	1.54736	1.40E-06
0.408	1.54954	1.31E-06
0.412	1.54954	1.27E-06
0.416	1.54645	1.23E-06
0.420	1.54871	1.06E-06
0.424	1.54607	1.12E-06
0.428	1.54584	9.87E-07
0.432	1.54539	8.35E-07
0.436	1.54584	8.51E-07
0.440	1.54441	7.75E-07
0.444	1.54259	7.79E-07
0.448	1.54206	8.36E-07
0.452	1.54305	7.19E-07
0.456	1.54115	7.06E-07
0.460	1.54153	7.23E-07
0.464	1.54077	7.14E-07
0.468	1.54070	6.51E-07
0.472	1.54032	6.06E-07
0.476	1.53956	7.02E-07
0.480	1.53910	6.21E-07
0.484	1.53888	5.86E-07
0.488	1.53857	5.68E-07
0.492	1.53857	5.72E-07
0.496	1.53834	5.03E-07
0.500	1.53781	5.31E-07
0.504	1.53667	5.26E-07
0.508	1.53652	5.57E-07
0.512	1.53629	6.11E-07
0.516	1.53644	6.06E-07
0.520	1.53652	6.70E-07
0.524	1.53454	6.64E-07
0.528	1.53485	8.00E-07
0.532	1.53508	8.17E-07
0.536	1.53485	9.78E-07
0.540	1.53424	1.15E-06
0.544	1.53401	1.36E-06
0.548	1.53386	1.59E-06
0.552	1.53332	1.82E-06
0.556	1.53317	2.19E-06
0.560	1.53317	2.68E-06
0.564	1.53317	3.11E-06
0.568	1.53287	3.56E-06
0.572	1.53218	4.11E-06
0.576	1.53264	4.79E-06
0.580	1.53271	5.49E-06
0.584	1.53218	6.24E-06
0.588	1.53149	7.24E-06
0.592	1.53119	8.34E-06
0.596	1.53126	9.39E-06
0.600	1.53096	1.07E-05
0.604	1.53096	1.20E-05
0.608	1.53058	1.35E-05
0.612	1.53050	1.52E-05
0.616	1.53027	1.70E-05
0.620	1.53020	1.87E-05
0.624	1.52951	2.07E-05
0.628	1.52989	2.30E-05
0.632	1.52974	2.52E-05
0.636	1.52913	2.77E-05
0.640	1.52928	3.01E-05
0.644	1.52897	3.30E-05
0.648	1.52874	3.57E-05
0.652	1.52828	3.87E-05
0.656	1.52882	4.18E-05
0.660	1.52867	4.52E-05
0.664	1.52828	4.87E-05
0.668	1.52851	5.23E-05
0.672	1.52890	5.59E-05
0.676	1.52859	5.98E-05
0.680	1.52790	6.38E-05
0.684	1.52798	6.79E-05
0.688	1.52767	7.21E-05
0.692	1.52744	7.65E-05
0.696	1.52752	8.10E-05
0.700	1.52737	8.58E-05
0.704	1.52698	9.05E-05
0.708	1.52744	9.54E-05
0.712	1.52683	1.00E-04
0.716	1.52629	1.06E-04
0.720	1.52737	1.11E-04
0.724	1.52675	1.16E-04
0.728	1.52652	1.21E-04
0.732	1.52675	1.27E-04
0.736	1.52675	1.32E-04
0.740	1.52698	1.37E-04
0.744	1.52652	1.42E-04
0.748	1.52606	1.48E-04
0.752	1.52652	1.53E-04
0.756	1.52744	1.58E-04
0.760	1.52652	1.64E-04
0.764	1.52614	1.69E-04
0.768	1.52706	1.74E-04
0.772	1.52561	1.79E-04
0.776	1.52591	1.83E-04
0.780	1.52714	1.89E-04
0.784	1.52606	1.94E-04
0.788	1.52538	1.98E-04
0.792	1.52576	2.04E-04
0.796	1.52637	2.08E-04
0.800	1.52522	2.13E-04
0.804	1.52737	2.17E-04
0.808	1.52560	2.20E-04
0.812	1.52568	2.25E-04
0.816	1.52568	2.28E-04
0.820	1.52652	2.32E-04
0.824	1.52576	2.36E-04
0.828	1.52675	2.39E-04
0.832	1.52599	2.43E-04
0.836	1.52737	2.46E-04
0.840	1.52698	2.46E-04
0.844	1.52683	2.53E-04
0.848	1.52706	2.59E-04
0.852	1.52538	2.60E-04
0.856	1.52169	2.62E-04
0.860	1.52131	2.73E-04
0.864	1.52461	2.73E-04
0.868	1.52629	2.74E-04
0.872	1.52254	2.75E-04
0.876	1.52108	2.76E-04
0.880	1.52392	2.79E-04
0.884	1.52254	2.82E-04
0.888	1.52323	2.78E-04
0.892	1.52330	2.89E-04
0.896	1.52530	2.79E-04
0.900	1.52538	2.82E-04
0.904	1.52476	2.81E-04
0.908	1.52606	2.78E-04
0.912	1.52645	2.81E-04
0.916	1.52568	2.81E-04
0.920	1.52323	2.84E-04
0.924	1.52369	2.85E-04
0.928	1.52469	2.82E-04
0.932	1.52423	2.81E-04
0.936	1.52568	2.80E-04
0.940	1.52407	2.84E-04
0.944	1.52438	2.82E-04
0.948	1.52469	2.83E-04
0.952	1.52277	2.84E-04
0.956	1.52353	2.85E-04
0.960	1.52469	2.81E-04
0.964	1.52330	2.81E-04
0.968	1.52415	2.81E-04
0.972	1.52323	2.79E-04
0.976	1.52346	2.79E-04
0.980	1.52369	2.72E-04
0.984	1.52323	2.72E-04
0.988	1.52338	2.76E-04
0.992	1.52353	2.75E-04
0.996	1.52300	2.72E-04
1.000	1.52284	2.68E-04
1.004	1.52246	2.69E-04
1.008	1.52323	2.69E-04
1.012	1.52200	2.67E-04
1.016	1.52246	2.67E-04
1.020	1.52330	2.65E-04
1.024	1.52407	2.63E-04
1.028	1.52330	2.60E-04
1.032	1.52338	2.60E-04
1.036	1.52246	2.58E-04
1.040	1.52223	2.56E-04
1.044	1.52092	2.54E-04
1.048	1.52284	2.55E-04
1.052	1.52185	2.50E-04
1.056	1.52300	2.49E-04
1.060	1.52238	2.48E-04
1.064	1.52108	2.46E-04
1.068	1.52146	2.46E-04
1.072	1.52269	2.43E-04
1.076	1.52338	2.43E-04
1.080	1.52261	2.40E-04
1.084	1.52077	2.40E-04
1.088	1.52169	2.36E-04
1.092	1.52100	2.33E-04
1.096	1.52169	2.34E-04
1.100	1.52154	2.31E-04
1.104	1.52100	2.30E-04
1.108	1.52169	2.28E-04
1.112	1.52069	2.26E-04
1.116	1.52131	2.24E-04
1.120	1.51985	2.23E-04
1.124	1.52131	2.22E-04
1.128	1.52077	2.20E-04
1.132	1.52046	2.17E-04
1.136	1.52023	2.15E-04
1.140	1.52092	2.14E-04
1.144	1.52054	2.12E-04
1.148	1.51985	2.11E-04
1.152	1.52038	2.08E-04
1.156	1.52062	2.07E-04
1.160	1.52054	2.04E-04
1.164	1.52062	2.04E-04
1.168	1.52161	2.02E-04
1.172	1.52054	1.99E-04
1.176	1.51969	1.98E-04
1.180	1.51962	1.97E-04
1.184	1.51915	1.95E-04
1.188	1.52123	1.93E-04
1.192	1.52008	1.91E-04
1.196	1.51892	1.89E-04
1.200	1.51900	1.87E-04
1.204	1.51977	1.87E-04
1.208	1.52062	1.84E-04
1.212	1.51992	1.82E-04
1.216	1.51969	1.80E-04
1.220	1.51923	1.79E-04
1.224	1.51900	1.77E-04
1.228	1.52031	1.75E-04
1.232	1.51977	1.73E-04
1.236	1.51931	1.72E-04
1.240	1.51985	1.70E-04
1.244	1.52000	1.68E-04
1.248	1.51985	1.66E-04
1.252	1.51969	1.65E-04
1.256	1.51800	1.63E-04
1.260	1.51885	1.61E-04
1.264	1.51777	1.59E-04
1.268	1.51846	1.58E-04
1.272	1.51892	1.56E-04
1.276	1.51877	1.53E-04
1.280	1.51861	1.53E-04
1.284	1.51869	1.50E-04
1.288	1.51854	1.48E-04
1.292	1.52015	1.48E-04
1.296	1.51915	1.46E-04
1.300	1.51854	1.44E-04
1.304	1.51854	1.43E-04
1.308	1.51915	1.41E-04
1.312	1.51730	1.39E-04
1.316	1.51738	1.37E-04
1.320	1.51831	1.35E-04
1.324	1.51854	1.34E-04
1.328	1.51746	1.32E-04
1.332	1.51900	1.31E-04
1.336	1.51838	1.29E-04
1.340	1.51723	1.27E-04
1.344	1.51707	1.26E-04
1.348	1.51769	1.24E-04
1.352	1.51746	1.23E-04
1.356	1.51754	1.21E-04
1.360	1.51669	1.19E-04
1.364	1.51684	1.18E-04
1.368	1.51584	1.16E-04
1.372	1.51676	1.15E-04
1.376	1.51669	1.13E-04
1.380	1.51584	1.12E-04
1.384	1.51638	1.10E-04
1.388	1.51584	1.09E-04
1.392	1.51561	1.07E-04
1.396	1.51638	1.06E-04
1.400	1.51599	1.05E-04
1.404	1.51522	1.03E-04
1.408	1.51499	1.03E-04
1.412	1.51530	1.01E-04
1.416	1.51499	9.96E-05
1.420	1.51507	9.84E-05
1.424	1.51545	9.72E-05
1.428	1.51484	9.59E-05
1.432	1.51368	9.52E-05
1.436	1.51314	9.38E-05
1.440	1.51460	9.20E-05
1.444	1.51337	9.09E-05
1.448	1.51422	9.00E-05
1.452	1.51383	8.85E-05
1.456	1.51368	8.74E-05
1.460	1.51329	8.60E-05
1.464	1.51221	8.46E-05
1.468	1.51213	8.33E-05
1.472	1.51298	8.26E-05
1.476	1.51228	8.13E-05
1.480	1.51174	8.00E-05
1.484	1.51337	7.89E-05
1.488	1.51283	7.78E-05
1.492	1.51143	7.64E-05
1.496	1.51290	7.57E-05
1.500	1.51221	7.45E-05
