Material: isuzu / filter / IHU290
Optical constants. Data kindly provided by Koichiro Ikeda, ISUZU GLASS LTD. Nov 2024. See also Isuzu Glass Products
Comments: UV transmitting filter (IHU series).
wavelength (um)	n	k
0.200	1.59945	3.50E-05
0.205	1.61739	3.64E-05
0.210	1.61580	3.69E-05
0.215	1.60297	3.70E-05
0.220	1.59175	3.79E-05
0.225	1.58762	3.81E-05
0.230	1.58467	3.91E-05
0.235	1.57431	4.04E-05
0.240	1.56970	4.19E-05
0.245	1.56739	4.32E-05
0.250	1.56321	4.46E-05
0.255	1.55601	4.38E-05
0.260	1.55226	3.80E-05
0.265	1.55188	3.02E-05
0.270	1.54728	2.29E-05
0.275	1.54720	1.69E-05
0.280	1.54274	1.21E-05
0.285	1.54062	8.48E-06
0.290	1.53705	5.87E-06
0.295	1.53736	4.02E-06
0.300	1.53492	2.75E-06
0.305	1.53126	1.89E-06
0.310	1.53088	1.29E-06
0.315	1.52783	8.82E-07
0.320	1.52629	6.37E-07
0.325	1.52369	4.48E-07
0.330	1.52154	3.22E-07
0.335	1.52131	2.44E-07
0.340	1.52423	1.53E-07
0.345	1.52246	1.29E-07
0.350	1.52292	7.97E-08
0.355	1.52038	5.25E-08
0.360	1.51962	3.99E-08
0.365	1.51892	3.50E-08
0.370	1.51869	3.35E-08
0.375	1.51815	3.77E-08
0.380	1.51676	3.73E-08
0.385	1.51545	2.51E-08
0.390	1.51499	1.72E-08
0.395	1.51414	2.03E-08
0.400	1.51259	2.29E-08
0.405	1.51236	2.10E-08
0.410	1.51197	2.48E-08
0.415	1.51050	3.54E-08
0.420	1.50988	3.75E-08
0.425	1.50903	4.30E-08
0.430	1.50818	4.32E-08
0.435	1.50748	5.13E-08
0.440	1.50732	4.84E-08
0.445	1.50717	3.94E-08
0.450	1.50639	4.16E-08
0.455	1.50616	3.60E-08
0.460	1.50553	2.98E-08
0.465	1.50499	3.37E-08
0.470	1.50515	2.85E-08
0.475	1.50421	3.53E-08
0.480	1.50367	2.35E-08
0.485	1.50242	3.52E-08
0.490	1.50234	2.57E-08
0.495	1.50195	2.76E-08
0.500	1.50117	1.99E-08
0.505	1.50109	2.19E-08
0.510	1.50078	2.35E-08
0.515	1.50031	2.00E-08
0.520	1.50039	1.68E-08
0.525	1.49961	1.64E-08
0.530	1.49914	1.69E-08
0.535	1.49914	1.81E-08
0.540	1.49859	1.68E-08
0.545	1.49820	1.48E-08
0.550	1.49820	1.49E-08
0.555	1.49789	1.80E-08
0.560	1.49789	1.76E-08
0.565	1.49750	1.87E-08
0.570	1.49711	2.27E-08
0.575	1.49711	2.13E-08
0.580	1.49671	2.05E-08
0.585	1.49632	2.96E-08
0.590	1.49640	2.78E-08
0.595	1.49617	3.16E-08
0.600	1.49546	2.77E-08
0.605	1.49530	3.83E-08
0.610	1.49538	3.53E-08
0.615	1.49491	3.70E-08
0.620	1.49491	3.82E-08
0.625	1.49491	3.53E-08
0.630	1.49452	3.56E-08
0.635	1.49397	3.94E-08
0.640	1.49405	4.04E-08
0.645	1.49405	4.20E-08
0.650	1.49366	3.57E-08
0.655	1.49405	3.08E-08
0.660	1.49326	4.42E-08
0.665	1.49287	4.05E-08
0.670	1.49161	4.55E-08
0.675	1.49161	4.59E-08
0.680	1.49106	4.90E-08
0.685	1.49130	4.43E-08
0.690	1.49098	3.72E-08
0.695	1.49138	3.98E-08
0.700	1.49106	3.22E-08
0.705	1.49059	4.19E-08
0.710	1.49067	3.96E-08
0.715	1.49067	3.62E-08
0.720	1.49122	2.36E-08
0.725	1.49067	3.37E-08
0.730	1.49051	2.21E-08
0.735	1.49035	2.70E-08
0.740	1.49059	2.50E-08
0.745	1.48988	2.99E-08
0.750	1.48972	2.80E-08
0.755	1.49012	2.50E-08
0.760	1.49051	3.53E-08
0.765	1.48972	3.35E-08
0.770	1.48988	2.49E-08
0.775	1.48988	2.00E-08
0.780	1.48980	2.14E-08
0.785	1.48972	1.53E-08
0.790	1.49027	1.69E-09
0.795	1.48988	2.00E-08
0.800	1.48909	2.38E-08
0.805	1.48964	1.43E-08
0.810	1.48957	9.39E-09
0.815	1.48957	1.81E-08
0.820	1.48941	1.81E-08
0.825	1.48933	3.80E-09
0.830	1.48846	2.46E-08
0.835	1.48886	1.81E-08
0.840	1.48846	4.56E-09
0.845	1.48862	1.94E-08
0.850	1.47090	1.42E-07
0.855	1.45768	2.30E-07
0.860	1.46375	1.77E-07
0.865	1.46310	1.87E-07
0.870	1.46108	2.09E-07
0.875	1.46745	1.55E-07
0.880	1.46116	2.16E-07
0.885	1.46640	1.67E-07
0.890	1.46536	1.67E-07
0.895	1.46568	1.64E-07
0.900	1.46640	1.58E-07
0.905	1.46962	1.43E-07
0.910	1.46906	1.42E-07
0.915	1.47002	1.43E-07
0.920	1.47202	8.01E-08
0.925	1.46970	9.75E-08
0.930	1.47242	1.22E-07
0.935	1.47194	1.28E-07
0.940	1.47330	1.22E-07
0.945	1.47202	1.51E-07
0.950	1.47234	1.30E-07
0.955	1.47250	1.41E-07
0.960	1.47242	1.30E-07
0.965	1.47322	1.06E-07
0.970	1.47178	1.16E-07
0.975	1.47298	1.17E-07
0.980	1.47162	1.15E-07
0.985	1.47210	1.26E-07
0.990	1.47242	1.10E-07
0.995	1.47330	1.19E-07
1.000	1.47162	1.26E-07
1.005	1.47290	1.17E-07
1.010	1.47402	1.04E-07
1.015	1.47218	1.09E-07
1.020	1.47194	1.12E-07
1.025	1.47298	9.85E-08
1.030	1.47282	9.19E-08
1.035	1.47210	1.02E-07
1.040	1.47202	1.14E-07
1.045	1.47106	1.15E-07
1.050	1.47106	1.12E-07
1.055	1.47290	1.11E-07
1.060	1.47194	1.02E-07
1.065	1.47178	1.21E-07
1.070	1.47378	8.59E-08
1.075	1.47114	1.26E-07
1.080	1.47194	1.10E-07
1.085	1.47242	1.05E-07
1.090	1.47186	9.14E-08
1.095	1.47130	1.08E-07
1.100	1.47178	9.93E-08
1.105	1.47114	1.13E-07
1.110	1.47178	1.06E-07
1.115	1.47090	1.07E-07
1.120	1.47018	1.28E-07
1.125	1.47194	8.90E-08
1.130	1.47146	1.09E-07
1.135	1.47226	1.02E-07
1.140	1.47002	1.24E-07
1.145	1.47082	1.32E-07
1.150	1.47090	9.11E-08
1.155	1.47114	1.05E-07
1.160	1.47018	9.57E-08
1.165	1.47082	1.17E-07
1.170	1.47194	7.94E-08
1.175	1.46930	1.40E-07
1.180	1.47130	1.12E-07
1.185	1.46994	1.08E-07
1.190	1.47090	1.27E-07
1.195	1.46986	1.23E-07
1.200	1.46857	1.23E-07
1.205	1.46962	1.27E-07
1.210	1.46849	1.40E-07
1.215	1.46986	1.02E-07
1.220	1.46994	1.28E-07
1.225	1.46970	1.44E-07
1.230	1.46946	1.17E-07
1.235	1.46906	1.46E-07
1.240	1.46986	1.32E-07
1.245	1.46922	1.37E-07
1.250	1.46914	1.30E-07
1.255	1.46857	1.34E-07
1.260	1.46873	1.40E-07
1.265	1.46906	1.32E-07
1.270	1.46881	1.38E-07
1.275	1.46881	1.37E-07
1.280	1.46922	1.22E-07
1.285	1.46809	1.15E-07
1.290	1.46785	1.37E-07
1.295	1.46914	1.22E-07
1.300	1.46761	1.28E-07
1.305	1.46930	1.96E-07
1.310	1.46898	1.11E-07
1.315	1.46817	1.49E-07
1.320	1.46841	1.28E-07
1.325	1.46809	1.32E-07
1.330	1.46737	1.80E-07
1.335	1.46793	8.92E-08
1.340	1.46833	1.63E-07
1.345	1.46881	1.31E-07
1.350	1.46817	9.09E-08
1.355	1.46721	2.16E-07
1.360	1.46608	1.81E-07
1.365	1.46697	1.98E-07
1.370	1.46697	2.28E-07
1.375	1.46608	2.81E-07
1.380	1.46576	3.60E-07
1.385	1.46616	4.34E-07
1.390	1.46657	5.46E-07
1.395	1.46584	6.55E-07
1.400	1.46576	7.11E-07
1.405	1.46608	7.52E-07
1.410	1.46705	7.35E-07
1.415	1.46640	6.60E-07
1.420	1.46576	6.52E-07
1.425	1.46616	6.03E-07
1.430	1.46552	5.63E-07
1.435	1.46649	4.79E-07
1.440	1.46649	4.40E-07
1.445	1.46697	4.47E-07
1.450	1.46697	3.92E-07
1.455	1.46649	3.61E-07
1.460	1.46520	4.01E-07
1.465	1.46624	3.45E-07
1.470	1.46681	3.05E-07
1.475	1.46480	3.32E-07
1.480	1.46471	3.18E-07
1.485	1.46649	2.88E-07
1.490	1.46624	3.19E-07
1.495	1.46616	2.51E-07
1.500	1.46584	2.67E-07
1.505	1.46616	2.82E-07
1.510	1.46536	2.53E-07
1.515	1.46600	2.66E-07
1.520	1.46520	2.64E-07
1.525	1.46552	2.62E-07
1.530	1.46447	2.63E-07
1.535	1.46407	2.97E-07
1.540	1.46576	2.36E-07
1.545	1.46544	2.52E-07
1.550	1.46512	2.76E-07
1.555	1.46568	2.46E-07
1.560	1.46552	2.60E-07
1.565	1.46488	2.46E-07
1.570	1.46391	2.82E-07
1.575	1.46471	2.56E-07
1.580	1.46431	2.95E-07
1.585	1.46488	2.71E-07
1.590	1.46407	2.98E-07
1.595	1.46504	2.68E-07
1.600	1.46367	2.77E-07
1.605	1.46471	2.74E-07
1.610	1.46391	2.87E-07
1.615	1.46351	3.00E-07
1.620	1.46423	2.89E-07
1.625	1.46391	2.82E-07
1.630	1.46407	2.91E-07
1.635	1.46278	3.00E-07
1.640	1.46463	2.91E-07
1.645	1.46310	3.10E-07
1.650	1.46359	3.10E-07
1.655	1.46351	3.26E-07
1.660	1.46173	3.14E-07
1.665	1.46343	3.18E-07
1.670	1.46294	2.90E-07
1.675	1.46294	3.38E-07
1.680	1.46213	3.25E-07
1.685	1.46254	3.18E-07
1.690	1.46270	3.29E-07
1.695	1.46205	3.41E-07
1.700	1.46181	3.46E-07
1.705	1.46294	3.24E-07
1.710	1.46157	3.40E-07
1.715	1.46181	3.57E-07
1.720	1.46157	3.19E-07
1.725	1.46165	3.56E-07
1.730	1.46189	3.49E-07
1.735	1.46181	3.41E-07
1.740	1.46076	3.46E-07
1.745	1.46068	3.70E-07
1.750	1.46133	3.61E-07
1.755	1.46157	4.00E-07
1.760	1.46165	3.57E-07
1.765	1.46165	3.57E-07
1.770	1.46157	3.77E-07
1.775	1.46125	3.49E-07
1.780	1.46116	3.75E-07
1.785	1.46149	3.59E-07
1.790	1.46149	3.67E-07
1.795	1.46165	4.04E-07
1.800	1.46125	3.84E-07
1.805	1.46116	3.98E-07
1.810	1.46246	3.67E-07
1.815	1.46011	3.62E-07
1.820	1.46294	3.62E-07
1.825	1.45882	4.47E-07
1.830	1.46076	4.27E-07
1.835	1.46003	4.34E-07
1.840	1.45955	4.22E-07
1.845	1.45882	4.56E-07
1.850	1.45930	4.64E-07
1.855	1.45955	4.53E-07
1.860	1.45849	4.67E-07
1.865	1.45898	4.66E-07
1.870	1.45825	4.87E-07
1.875	1.45833	4.87E-07
1.880	1.45817	4.74E-07
1.885	1.45987	4.68E-07
1.890	1.45914	4.68E-07
1.895	1.45841	4.84E-07
1.900	1.45898	5.22E-07
1.905	1.45768	5.05E-07
1.910	1.45849	5.08E-07
1.915	1.45720	5.21E-07
1.920	1.45801	5.32E-07
1.925	1.45776	5.38E-07
1.930	1.45744	5.22E-07
1.935	1.45939	5.56E-07
1.940	1.45849	5.71E-07
1.945	1.45866	5.36E-07
1.950	1.45801	6.25E-07
1.955	1.45639	6.51E-07
1.960	1.45882	6.60E-07
1.965	1.45760	6.83E-07
1.970	1.45947	7.19E-07
1.975	1.45712	7.69E-07
1.980	1.45841	8.00E-07
1.985	1.45785	8.02E-07
1.990	1.45574	8.76E-07
1.995	1.45614	8.93E-07
2.000	1.45703	8.93E-07
