Material: isuzu / filter / IHU340
Optical constants. Data kindly provided by Koichiro Ikeda, ISUZU GLASS LTD. Nov 2024. See also Isuzu Glass Products
Comments: UV transmitting filter (IHU series). Glass type: P2O5-Al2O3.
Properties: {"nd": 1.516, "Vd": 73.7, "density": [{"value": 2570}], "thermal_expansion": [{"temperature_range": "373 573", "value": "5.8-06"}], "transformation_temperature": [{"value": 883}], "durability": 1, "hardness": [{"type": "Knoop", "value": "4.25e9"}]}
wavelength (um)	n	k
0.200	-7.61851	3.71E-05
0.205	4.50537	4.69E-05
0.210	1.84264	7.01E-05
0.215	1.12442	6.00E-05
0.220	1.70579	6.58E-05
0.225	1.52085	6.96E-05
0.230	1.57141	6.39E-05
0.235	1.55135	6.85E-05
0.240	1.57044	7.21E-05
0.245	1.59924	7.36E-05
0.250	1.58172	7.84E-05
0.255	1.56612	8.00E-05
0.260	1.58394	8.15E-05
0.265	1.57290	8.47E-05
0.270	1.56880	8.83E-05
0.275	1.56522	8.99E-05
0.280	1.55218	9.16E-05
0.285	1.54939	9.59E-05
0.290	1.54342	9.49E-05
0.295	1.54584	9.44E-05
0.300	1.54448	1.01E-04
0.305	1.54856	1.14E-04
0.310	1.54902	8.95E-05
0.315	1.54426	6.40E-05
0.320	1.55241	4.21E-05
0.325	1.54984	2.68E-05
0.330	1.54206	1.69E-05
0.335	1.53530	1.05E-05
0.340	1.54675	6.32E-06
0.345	1.53956	3.92E-06
0.350	1.53948	2.43E-06
0.355	1.53872	1.53E-06
0.360	1.53393	1.01E-06
0.365	1.53971	6.59E-07
0.370	1.53340	4.80E-07
0.375	1.53386	3.42E-07
0.380	1.53599	2.43E-07
0.385	1.53088	2.13E-07
0.390	1.53378	1.63E-07
0.395	1.53050	1.52E-07
0.400	1.52997	1.30E-07
0.405	1.53073	1.24E-07
0.410	1.52698	1.24E-07
0.415	1.52859	1.15E-07
0.420	1.52606	1.30E-07
0.425	1.52821	1.12E-07
0.430	1.52622	1.26E-07
0.435	1.52553	1.22E-07
0.440	1.52606	1.15E-07
0.445	1.52576	1.16E-07
0.450	1.52553	1.18E-07
0.455	1.52484	1.12E-07
0.460	1.52430	1.16E-07
0.465	1.52392	1.22E-07
0.470	1.52353	1.15E-07
0.475	1.52146	1.20E-07
0.480	1.52223	1.13E-07
0.485	1.52200	1.11E-07
0.490	1.52169	1.15E-07
0.495	1.52031	1.19E-07
0.500	1.52092	1.19E-07
0.505	1.52015	1.21E-07
0.510	1.51938	1.30E-07
0.515	1.51954	1.26E-07
0.520	1.51938	1.36E-07
0.525	1.51877	1.35E-07
0.530	1.51892	1.43E-07
0.535	1.51900	1.44E-07
0.540	1.51823	1.54E-07
0.545	1.51754	1.63E-07
0.550	1.51777	1.67E-07
0.555	1.51746	1.70E-07
0.560	1.51730	1.77E-07
0.565	1.51730	1.90E-07
0.570	1.51653	1.88E-07
0.575	1.51715	2.03E-07
0.580	1.51653	2.01E-07
0.585	1.51692	2.14E-07
0.590	1.51592	2.13E-07
0.595	1.51561	2.22E-07
0.600	1.51638	2.28E-07
0.605	1.51592	2.25E-07
0.610	1.51676	2.26E-07
0.615	1.51615	2.39E-07
0.620	1.51538	2.48E-07
0.625	1.51476	2.52E-07
0.630	1.51522	2.60E-07
0.635	1.51491	2.59E-07
0.640	1.51507	2.75E-07
0.645	1.51499	2.79E-07
0.650	1.51545	2.85E-07
0.655	1.51422	3.05E-07
0.660	1.51414	3.15E-07
0.665	1.51375	3.30E-07
0.670	1.51283	3.44E-07
0.675	1.51275	3.65E-07
0.680	1.51244	3.81E-07
0.685	1.51213	3.91E-07
0.690	1.51275	4.05E-07
0.695	1.51283	4.23E-07
0.700	1.51167	4.46E-07
0.705	1.51290	4.61E-07
0.710	1.51314	4.68E-07
0.715	1.51344	4.86E-07
0.720	1.51228	5.16E-07
0.725	1.51275	5.17E-07
0.730	1.51368	5.35E-07
0.735	1.51283	5.62E-07
0.740	1.51259	5.75E-07
0.745	1.51182	5.90E-07
0.750	1.51267	6.11E-07
0.755	1.51205	6.28E-07
0.760	1.51244	6.38E-07
0.765	1.51221	6.62E-07
0.770	1.51414	6.56E-07
0.775	1.51244	6.70E-07
0.780	1.51267	6.89E-07
0.785	1.51344	6.88E-07
0.790	1.51306	7.06E-07
0.795	1.51043	7.31E-07
0.800	1.51190	7.48E-07
0.805	1.51530	7.21E-07
0.810	1.51105	7.76E-07
0.815	1.51197	7.68E-07
0.820	1.51298	7.57E-07
0.825	1.51267	7.81E-07
0.830	1.51368	7.92E-07
0.835	1.51522	7.71E-07
0.840	1.51399	7.99E-07
0.845	1.51383	8.07E-07
0.850	1.51399	7.16E-07
0.855	1.50701	8.21E-07
0.860	1.51120	8.19E-07
0.865	1.51182	8.18E-07
0.870	1.51136	8.19E-07
0.875	1.50988	8.66E-07
0.880	1.50981	8.77E-07
0.885	1.51190	8.55E-07
0.890	1.51050	8.80E-07
0.895	1.51205	8.67E-07
0.900	1.51128	8.95E-07
0.905	1.51244	8.78E-07
0.910	1.51058	9.08E-07
0.915	1.51143	8.60E-07
0.920	1.51391	8.72E-07
0.925	1.51267	8.97E-07
0.930	1.51112	9.00E-07
0.935	1.51120	9.30E-07
0.940	1.51174	9.12E-07
0.945	1.51136	9.18E-07
0.950	1.51112	9.17E-07
0.955	1.51066	9.31E-07
0.960	1.51205	9.25E-07
0.965	1.51012	9.63E-07
0.970	1.51035	9.42E-07
0.975	1.51089	9.79E-07
0.980	1.50973	9.68E-07
0.985	1.51012	9.69E-07
0.990	1.50919	9.54E-07
0.995	1.50957	9.99E-07
1.000	1.51019	9.61E-07
1.005	1.50981	9.74E-07
1.010	1.50856	9.74E-07
1.015	1.50903	9.97E-07
1.020	1.51136	9.41E-07
1.025	1.50988	9.70E-07
1.030	1.50903	9.64E-07
1.035	1.50957	9.40E-07
1.040	1.50911	9.76E-07
1.045	1.50919	1.01E-06
1.050	1.50825	9.54E-07
1.055	1.50988	9.79E-07
1.060	1.50818	9.43E-07
1.065	1.50724	9.60E-07
1.070	1.50856	9.89E-07
1.075	1.50911	9.30E-07
1.080	1.50825	9.42E-07
1.085	1.50810	9.43E-07
1.090	1.50771	9.36E-07
1.095	1.50756	9.56E-07
1.100	1.50818	9.36E-07
1.105	1.50818	9.29E-07
1.110	1.50818	9.33E-07
1.115	1.50717	9.38E-07
1.120	1.50732	9.46E-07
1.125	1.50608	9.41E-07
1.130	1.50662	9.37E-07
1.135	1.50616	9.46E-07
1.140	1.50686	9.26E-07
1.145	1.50794	9.20E-07
1.150	1.50779	9.31E-07
1.155	1.50740	9.00E-07
1.160	1.50670	8.98E-07
1.165	1.50670	9.29E-07
1.170	1.50748	9.16E-07
1.175	1.50608	9.24E-07
1.180	1.50631	8.90E-07
1.185	1.50709	8.96E-07
1.190	1.50608	8.90E-07
1.195	1.50507	9.20E-07
1.200	1.50515	9.18E-07
1.205	1.50546	9.27E-07
1.210	1.50686	8.51E-07
1.215	1.50608	9.11E-07
1.220	1.50592	8.87E-07
1.225	1.50608	8.85E-07
1.230	1.50592	8.52E-07
1.235	1.50476	8.92E-07
1.240	1.50460	9.01E-07
1.245	1.50561	8.83E-07
1.250	1.50592	8.80E-07
1.255	1.50429	8.83E-07
1.260	1.50522	8.88E-07
1.265	1.50553	8.56E-07
1.270	1.50553	8.74E-07
1.275	1.50647	8.64E-07
1.280	1.50398	8.73E-07
1.285	1.50406	8.68E-07
1.290	1.50546	8.47E-07
1.295	1.50631	8.62E-07
1.300	1.50437	8.52E-07
1.305	1.50483	8.45E-07
1.310	1.50639	8.27E-07
1.315	1.50468	8.52E-07
1.320	1.50421	8.46E-07
1.325	1.50499	8.51E-07
1.330	1.50343	8.56E-07
1.335	1.50600	8.56E-07
1.340	1.50382	8.02E-07
1.345	1.50429	8.68E-07
1.350	1.50390	8.28E-07
1.355	1.50421	8.69E-07
1.360	1.50452	8.21E-07
1.365	1.50312	8.77E-07
1.370	1.50297	8.71E-07
1.375	1.50297	8.57E-07
1.380	1.50281	8.65E-07
1.385	1.50273	8.91E-07
1.390	1.50304	9.16E-07
1.395	1.50258	9.74E-07
1.400	1.50273	9.81E-07
1.405	1.50250	1.07E-06
1.410	1.50335	1.16E-06
1.415	1.50133	1.35E-06
1.420	1.50211	1.41E-06
1.425	1.50117	1.49E-06
1.430	1.50226	1.51E-06
1.435	1.50203	1.53E-06
1.440	1.50351	1.51E-06
1.445	1.50219	1.52E-06
1.450	1.50273	1.50E-06
1.455	1.50094	1.49E-06
1.460	1.50234	1.43E-06
1.465	1.50141	1.44E-06
1.470	1.50211	1.36E-06
1.475	1.50070	1.45E-06
1.480	1.50125	1.35E-06
1.485	1.50148	1.34E-06
1.490	1.50039	1.35E-06
1.495	1.50148	1.29E-06
1.500	1.50148	1.27E-06
1.505	1.50078	1.33E-06
1.510	1.50156	1.29E-06
1.515	1.50086	1.28E-06
1.520	1.50234	1.28E-06
1.525	1.50211	1.22E-06
1.530	1.50062	1.22E-06
1.535	1.50086	1.31E-06
1.540	1.50117	1.22E-06
1.545	1.50180	1.28E-06
1.550	1.50062	1.27E-06
1.555	1.50133	1.26E-06
1.560	1.50016	1.29E-06
1.565	1.50016	1.33E-06
1.570	1.50039	1.29E-06
1.575	1.49977	1.34E-06
1.580	1.50102	1.29E-06
1.585	1.50047	1.35E-06
1.590	1.50180	1.33E-06
1.595	1.50008	1.33E-06
1.600	1.50148	1.39E-06
1.605	1.49961	1.34E-06
1.610	1.49953	1.45E-06
1.615	1.49969	1.45E-06
1.620	1.49945	1.48E-06
1.625	1.49961	1.44E-06
1.630	1.50008	1.51E-06
1.635	1.50055	1.47E-06
1.640	1.49898	1.56E-06
1.645	1.49984	1.52E-06
1.650	1.49937	1.57E-06
1.655	1.50047	1.60E-06
1.660	1.49781	1.64E-06
1.665	1.50039	1.67E-06
1.670	1.49922	1.66E-06
1.675	1.49930	1.70E-06
1.680	1.49844	1.76E-06
1.685	1.49883	1.78E-06
1.690	1.49883	1.80E-06
1.695	1.49836	1.83E-06
1.700	1.49906	1.86E-06
1.705	1.49812	1.90E-06
1.710	1.49703	1.97E-06
1.715	1.49805	1.96E-06
1.720	1.49773	2.02E-06
1.725	1.49836	2.05E-06
1.730	1.49797	2.11E-06
1.735	1.49875	2.11E-06
1.740	1.49898	2.14E-06
1.745	1.49789	2.19E-06
1.750	1.49797	2.21E-06
1.755	1.49781	2.30E-06
1.760	1.49922	2.28E-06
1.765	1.49797	2.38E-06
1.770	1.49797	2.42E-06
1.775	1.49851	2.46E-06
1.780	1.49812	2.48E-06
1.785	1.49718	2.53E-06
1.790	1.49601	2.62E-06
1.795	1.49632	2.66E-06
1.800	1.49797	2.66E-06
1.805	1.49640	2.67E-06
1.810	1.49718	2.77E-06
1.815	1.49812	2.76E-06
1.820	1.49523	2.87E-06
1.825	1.49836	2.85E-06
1.830	1.49695	2.92E-06
1.835	1.49656	2.95E-06
1.840	1.49742	2.96E-06
1.845	1.49742	3.01E-06
1.850	1.49499	3.07E-06
1.855	1.49593	3.17E-06
1.860	1.49679	3.13E-06
1.865	1.49570	3.24E-06
1.870	1.49742	3.22E-06
1.875	1.49758	3.33E-06
1.880	1.49726	3.38E-06
1.885	1.49468	3.42E-06
1.890	1.49287	3.54E-06
1.895	1.49460	3.50E-06
1.900	1.49711	3.52E-06
1.905	1.49350	3.65E-06
1.910	1.49295	3.70E-06
1.915	1.49334	3.76E-06
1.920	1.48996	3.83E-06
1.925	1.49311	3.90E-06
1.930	1.49373	3.88E-06
1.935	1.49208	4.00E-06
1.940	1.49138	4.05E-06
1.945	1.49311	4.06E-06
1.950	1.49326	4.14E-06
1.955	1.49287	4.14E-06
1.960	1.48980	4.25E-06
1.965	1.49240	4.37E-06
1.970	1.49224	4.39E-06
1.975	1.48854	4.44E-06
1.980	1.49358	4.41E-06
1.985	1.48799	4.70E-06
1.990	1.49177	4.62E-06
1.995	1.49248	4.51E-06
2.000	1.49413	4.71E-06
