Material: isuzu / filter / ILA400
Optical constants. Data kindly provided by Koichiro Ikeda, ISUZU GLASS LTD. Nov 2024. See also Isuzu Glass Products
Comments: Light balancing filter (ILA, ILB series).
wavelength (um)	n	k
0.200	1.64452	5.08E-05
0.205	1.63296	5.62E-05
0.210	1.60064	7.81E-05
0.215	1.59043	6.78E-05
0.220	1.58917	6.82E-05
0.225	1.59212	8.28E-05
0.230	1.58020	7.57E-05
0.235	1.57716	8.40E-05
0.240	1.57362	8.49E-05
0.245	1.57278	9.09E-05
0.250	1.57398	1.01E-04
0.255	1.57315	9.79E-05
0.260	1.57037	9.34E-05
0.265	1.57073	1.01E-04
0.270	1.57056	1.02E-04
0.275	1.56915	1.03E-04
0.280	1.56937	1.12E-04
0.285	1.56841	1.07E-04
0.290	1.56743	1.14E-04
0.295	1.56689	1.14E-04
0.300	1.56351	1.30E-04
0.305	1.56471	1.18E-04
0.310	1.56297	1.16E-04
0.315	1.56306	1.29E-04
0.320	1.56024	1.31E-04
0.325	1.55765	1.26E-04
0.330	1.56011	1.46E-04
0.335	1.56078	1.61E-04
0.340	1.55867	1.38E-04
0.345	1.55735	1.31E-04
0.350	1.55672	1.42E-04
0.355	1.55639	1.42E-04
0.360	1.55577	1.39E-04
0.365	1.55429	1.42E-04
0.370	1.55437	1.43E-04
0.375	1.55159	1.50E-04
0.380	1.55266	1.47E-04
0.385	1.55259	1.52E-04
0.390	1.55142	1.51E-04
0.395	1.55194	1.48E-04
0.400	1.55131	1.39E-04
0.405	1.55051	1.26E-04
0.410	1.55048	1.15E-04
0.415	1.54916	1.15E-04
0.420	1.54996	1.18E-04
0.425	1.54882	1.14E-04
0.430	1.54882	1.07E-04
0.435	1.54837	1.01E-04
0.440	1.54792	9.61E-05
0.445	1.54834	9.11E-05
0.450	1.54813	8.61E-05
0.455	1.54754	8.06E-05
0.460	1.54801	7.51E-05
0.465	1.54730	6.97E-05
0.470	1.54702	6.49E-05
0.475	1.54732	6.05E-05
0.480	1.54637	5.68E-05
0.485	1.54639	5.34E-05
0.490	1.54615	5.04E-05
0.495	1.54542	4.76E-05
0.500	1.54566	4.51E-05
0.505	1.54566	4.26E-05
0.510	1.54560	4.03E-05
0.515	1.54508	3.81E-05
0.520	1.54546	3.59E-05
0.525	1.54508	3.39E-05
0.530	1.54477	3.21E-05
0.535	1.54475	3.03E-05
0.540	1.54496	2.87E-05
0.545	1.54473	2.72E-05
0.550	1.54541	2.57E-05
0.555	1.54441	2.44E-05
0.560	1.54471	2.32E-05
0.565	1.54466	2.20E-05
0.570	1.54441	2.09E-05
0.575	1.54486	1.99E-05
0.580	1.54496	1.89E-05
0.585	1.54465	1.79E-05
0.590	1.54449	1.71E-05
0.595	1.54420	1.63E-05
0.600	1.54395	1.55E-05
0.605	1.54448	1.48E-05
0.610	1.54441	1.42E-05
0.615	1.54402	1.36E-05
0.620	1.54452	1.31E-05
0.625	1.54411	1.25E-05
0.630	1.54358	1.21E-05
0.635	1.54435	1.17E-05
0.640	1.54416	1.12E-05
0.645	1.54444	1.08E-05
0.650	1.54385	1.05E-05
0.655	1.54453	1.01E-05
0.660	1.54401	9.81E-06
0.665	1.54332	9.50E-06
0.670	1.54286	9.23E-06
0.675	1.54252	8.97E-06
0.680	1.54223	8.70E-06
0.685	1.54263	8.46E-06
0.690	1.54215	8.24E-06
0.695	1.54230	8.03E-06
0.700	1.54274	7.80E-06
0.705	1.54206	7.62E-06
0.710	1.54253	7.42E-06
0.715	1.54208	7.25E-06
0.720	1.54269	7.10E-06
0.725	1.54201	6.93E-06
0.730	1.54240	6.78E-06
0.735	1.54206	6.66E-06
0.740	1.54296	6.51E-06
0.745	1.54250	6.42E-06
0.750	1.54308	6.31E-06
0.755	1.54283	6.20E-06
0.760	1.54276	6.12E-06
0.765	1.54265	6.04E-06
0.770	1.54264	5.96E-06
0.775	1.54314	5.89E-06
0.780	1.54318	5.80E-06
0.785	1.54305	5.74E-06
0.790	1.54313	5.69E-06
0.795	1.54316	5.64E-06
0.800	1.54255	5.61E-06
0.805	1.54269	5.56E-06
0.810	1.54363	5.53E-06
0.815	1.54293	5.46E-06
0.820	1.54278	5.48E-06
0.825	1.54264	5.43E-06
0.830	1.54293	5.38E-06
0.835	1.54334	5.35E-06
0.840	1.54242	5.36E-06
0.845	1.54448	5.34E-06
0.850	1.53641	5.28E-06
0.855	1.53885	5.19E-06
0.860	1.53479	5.19E-06
0.865	1.53451	5.17E-06
0.870	1.53025	5.18E-06
0.875	1.53702	5.11E-06
0.880	1.53557	5.10E-06
0.885	1.53861	5.04E-06
0.890	1.53753	5.05E-06
0.895	1.53936	5.00E-06
0.900	1.54215	4.96E-06
0.905	1.53611	4.99E-06
0.910	1.53725	4.96E-06
0.915	1.54163	4.90E-06
0.920	1.53741	4.92E-06
0.925	1.54121	4.89E-06
0.930	1.53959	4.76E-06
0.935	1.54155	4.80E-06
0.940	1.54038	4.86E-06
0.945	1.54056	4.82E-06
0.950	1.54363	4.73E-06
0.955	1.54031	4.77E-06
0.960	1.54189	4.71E-06
0.965	1.54257	4.72E-06
0.970	1.53991	4.69E-06
0.975	1.54104	4.68E-06
0.980	1.54048	4.65E-06
0.985	1.54121	4.64E-06
0.990	1.54142	4.62E-06
0.995	1.53988	4.61E-06
1.000	1.54209	4.57E-06
1.005	1.54239	4.54E-06
1.010	1.53923	4.58E-06
1.015	1.53967	4.54E-06
1.020	1.53792	4.55E-06
1.025	1.54139	4.50E-06
1.030	1.53874	4.48E-06
1.035	1.54287	4.45E-06
1.040	1.53646	4.46E-06
1.045	1.54025	4.45E-06
1.050	1.53773	4.42E-06
1.055	1.54171	4.39E-06
1.060	1.53958	4.38E-06
1.065	1.53870	4.37E-06
1.070	1.53872	4.36E-06
1.075	1.53932	4.33E-06
1.080	1.53933	4.29E-06
1.085	1.54090	4.31E-06
1.090	1.53979	4.30E-06
1.095	1.53860	4.27E-06
1.100	1.54243	4.21E-06
1.105	1.53725	4.26E-06
1.110	1.54103	4.19E-06
1.115	1.53925	4.21E-06
1.120	1.53843	4.20E-06
1.125	1.53944	4.17E-06
1.130	1.53986	4.15E-06
1.135	1.53869	4.14E-06
1.140	1.53866	4.13E-06
1.145	1.54128	4.09E-06
1.150	1.54076	4.06E-06
1.155	1.54051	4.06E-06
1.160	1.53917	4.08E-06
1.165	1.53588	4.07E-06
1.170	1.53952	4.03E-06
1.175	1.53631	4.03E-06
1.180	1.53979	4.00E-06
1.185	1.53825	4.00E-06
1.190	1.53812	3.96E-06
1.195	1.53876	3.97E-06
1.200	1.53807	3.96E-06
1.205	1.53813	3.95E-06
1.210	1.53988	3.88E-06
1.215	1.53834	3.88E-06
1.220	1.53786	3.87E-06
1.225	1.53743	3.88E-06
1.230	1.53638	3.87E-06
1.235	1.53712	3.84E-06
1.240	1.53769	3.81E-06
1.245	1.53665	3.80E-06
1.250	1.53798	3.77E-06
1.255	1.53830	3.75E-06
1.260	1.53888	3.71E-06
1.265	1.53804	3.70E-06
1.270	1.53768	3.69E-06
1.275	1.53842	3.65E-06
1.280	1.53766	3.64E-06
1.285	1.53704	3.62E-06
1.290	1.53821	3.62E-06
1.295	1.53782	3.57E-06
1.300	1.53917	3.53E-06
1.305	1.53599	3.57E-06
1.310	1.53825	3.42E-06
1.315	1.53842	3.51E-06
1.320	1.53910	3.45E-06
1.325	1.53684	3.43E-06
1.330	1.53652	3.44E-06
1.335	1.53463	3.47E-06
1.340	1.53939	3.34E-06
1.345	1.53715	3.38E-06
1.350	1.53587	3.34E-06
1.355	1.53812	3.25E-06
1.360	1.53586	3.30E-06
1.365	1.53651	3.23E-06
1.370	1.53687	3.22E-06
1.375	1.53803	3.20E-06
1.380	1.53616	3.13E-06
1.385	1.53803	3.15E-06
1.390	1.53636	3.14E-06
1.395	1.53562	3.14E-06
1.400	1.53608	3.11E-06
1.405	1.53688	3.09E-06
1.410	1.53545	3.10E-06
1.415	1.53764	3.02E-06
1.420	1.53698	3.01E-06
1.425	1.53660	2.95E-06
1.430	1.53677	2.98E-06
1.435	1.53571	2.95E-06
1.440	1.53659	2.91E-06
1.445	1.53592	2.86E-06
1.450	1.53613	2.84E-06
1.455	1.53519	2.88E-06
1.460	1.53538	2.79E-06
1.465	1.53694	2.74E-06
1.470	1.53797	2.74E-06
1.475	1.53686	2.69E-06
1.480	1.53861	2.67E-06
1.485	1.53592	2.68E-06
1.490	1.53638	2.65E-06
1.495	1.53468	2.69E-06
1.500	1.53798	2.61E-06
1.505	1.53652	2.60E-06
1.510	1.53576	2.61E-06
1.515	1.53521	2.59E-06
1.520	1.53696	2.54E-06
1.525	1.53601	2.51E-06
1.530	1.53483	2.58E-06
1.535	1.53855	2.47E-06
1.540	1.53690	2.47E-06
1.545	1.53494	2.50E-06
1.550	1.53650	2.47E-06
1.555	1.53457	2.51E-06
1.560	1.53600	2.44E-06
1.565	1.53452	2.48E-06
1.570	1.53699	2.42E-06
1.575	1.53607	2.44E-06
1.580	1.53462	2.44E-06
1.585	1.53690	2.39E-06
1.590	1.53405	2.45E-06
1.595	1.53754	2.38E-06
1.600	1.53395	2.45E-06
1.605	1.53526	2.42E-06
1.610	1.53525	2.44E-06
1.615	1.53642	2.43E-06
1.620	1.53729	2.37E-06
1.625	1.53693	2.37E-06
1.630	1.53438	2.43E-06
1.635	1.53503	2.40E-06
1.640	1.53650	2.40E-06
1.645	1.53484	2.43E-06
1.650	1.53432	2.44E-06
1.655	1.53378	2.45E-06
1.660	1.53414	2.45E-06
1.665	1.53329	2.46E-06
1.670	1.53538	2.43E-06
1.675	1.53464	2.43E-06
1.680	1.53224	2.49E-06
1.685	1.53315	2.48E-06
1.690	1.53423	2.48E-06
1.695	1.53563	2.46E-06
1.700	1.53477	2.48E-06
1.705	1.53353	2.51E-06
1.710	1.53417	2.43E-06
1.715	1.53467	2.51E-06
1.720	1.53389	2.56E-06
1.725	1.53425	2.50E-06
1.730	1.53169	2.56E-06
1.735	1.53150	2.57E-06
1.740	1.53426	2.55E-06
1.745	1.53174	2.57E-06
1.750	1.53444	2.55E-06
1.755	1.53270	2.58E-06
1.760	1.53410	2.62E-06
1.765	1.53166	2.64E-06
1.770	1.53506	2.60E-06
1.775	1.53205	2.66E-06
1.780	1.53332	2.64E-06
1.785	1.53421	2.62E-06
1.790	1.53244	2.67E-06
1.795	1.53326	2.67E-06
1.800	1.53143	2.71E-06
1.805	1.53329	2.69E-06
1.810	1.53241	2.69E-06
1.815	1.53033	2.74E-06
1.820	1.53317	2.71E-06
1.825	1.53269	2.73E-06
1.830	1.53088	2.78E-06
1.835	1.53245	2.75E-06
1.840	1.53459	2.71E-06
1.845	1.53048	2.81E-06
1.850	1.53153	2.79E-06
1.855	1.53093	2.81E-06
1.860	1.53152	2.80E-06
1.865	1.52999	2.86E-06
1.870	1.53002	2.82E-06
1.875	1.52945	2.86E-06
1.880	1.53009	2.88E-06
1.885	1.52802	2.91E-06
1.890	1.53138	2.83E-06
1.895	1.52825	2.91E-06
1.900	1.53123	2.85E-06
1.905	1.53051	2.88E-06
1.910	1.53029	2.91E-06
1.915	1.53232	2.86E-06
1.920	1.53236	2.85E-06
1.925	1.52821	2.96E-06
1.930	1.52798	2.98E-06
1.935	1.53004	2.91E-06
1.940	1.53043	2.94E-06
1.945	1.53075	2.92E-06
1.950	1.53232	2.87E-06
1.955	1.53050	2.93E-06
1.960	1.52908	2.96E-06
1.965	1.52993	2.94E-06
1.970	1.52856	2.98E-06
1.975	1.52883	2.99E-06
1.980	1.52996	2.95E-06
1.985	1.52794	3.02E-06
1.990	1.52663	3.02E-06
1.995	1.52689	3.02E-06
2.000	1.52724	3.02E-06
