Material: isuzu / filter / ISK150
Optical constants. Data kindly provided by Koichiro Ikeda, ISUZU GLASS LTD. Nov 2024. See also Isuzu Glass Products
Comments: Heat absorbing filter (ISK series). Glass type: P2O5-Al2O3.
Properties: {"nd": 1.516, "Vd": 86.0, "density": [{"value": 2600}], "thermal_expansion": [{"temperature_range": "373 573", "value": 6e-06}], "transformation_temperature": [{"value": 867}], "durability": 1, "hardness": [{"type": "Knoop", "value": "4.87e9"}]}
wavelength (um)	n	k
0.200	1.65162	3.53E-05
0.205	1.62377	4.40E-05
0.210	1.61601	4.55E-05
0.215	1.60501	5.21E-05
0.220	1.60523	5.54E-05
0.225	1.59314	5.39E-05
0.230	1.58637	6.00E-05
0.235	1.58290	5.76E-05
0.240	1.57913	5.88E-05
0.245	1.57468	6.17E-05
0.250	1.56843	6.52E-05
0.255	1.56754	6.65E-05
0.260	1.56694	6.78E-05
0.265	1.56246	7.07E-05
0.270	1.55804	7.21E-05
0.275	1.55879	7.34E-05
0.280	1.55699	7.47E-05
0.285	1.55256	7.61E-05
0.290	1.55158	7.31E-05
0.295	1.54932	5.89E-05
0.300	1.54902	4.57E-05
0.305	1.54622	3.47E-05
0.310	1.54403	2.57E-05
0.315	1.54236	1.88E-05
0.320	1.54138	1.36E-05
0.325	1.54001	9.69E-06
0.330	1.53834	6.92E-06
0.335	1.53736	4.89E-06
0.340	1.53812	3.48E-06
0.345	1.53979	2.52E-06
0.350	1.53842	1.80E-06
0.355	1.53743	1.32E-06
0.360	1.53523	9.97E-07
0.365	1.53576	8.09E-07
0.370	1.53431	6.69E-07
0.375	1.53409	5.95E-07
0.380	1.53401	5.36E-07
0.385	1.53218	5.40E-07
0.390	1.53180	5.76E-07
0.395	1.53096	6.59E-07
0.400	1.53073	7.27E-07
0.405	1.52951	7.85E-07
0.410	1.52913	8.37E-07
0.415	1.52859	8.76E-07
0.420	1.52744	9.28E-07
0.425	1.52706	9.29E-07
0.430	1.52599	9.06E-07
0.435	1.52606	8.74E-07
0.440	1.52561	8.53E-07
0.445	1.52530	8.42E-07
0.450	1.52484	8.54E-07
0.455	1.52438	9.05E-07
0.460	1.52407	9.17E-07
0.465	1.52407	9.07E-07
0.470	1.52323	8.76E-07
0.475	1.52269	8.58E-07
0.480	1.52200	8.36E-07
0.485	1.52154	8.22E-07
0.490	1.52138	8.07E-07
0.495	1.52085	8.10E-07
0.500	1.52046	8.31E-07
0.505	1.52038	8.33E-07
0.510	1.51969	8.73E-07
0.515	1.51977	9.12E-07
0.520	1.51908	9.53E-07
0.525	1.51915	9.82E-07
0.530	1.51869	9.94E-07
0.535	1.51861	1.00E-06
0.540	1.51861	9.70E-07
0.545	1.51823	9.31E-07
0.550	1.51792	8.97E-07
0.555	1.51754	9.04E-07
0.560	1.51754	9.12E-07
0.565	1.51746	9.39E-07
0.570	1.51730	9.85E-07
0.575	1.51700	1.03E-06
0.580	1.51676	1.09E-06
0.585	1.51646	1.15E-06
0.590	1.51638	1.24E-06
0.595	1.51622	1.33E-06
0.600	1.51630	1.45E-06
0.605	1.51615	1.57E-06
0.610	1.51545	1.72E-06
0.615	1.51576	1.89E-06
0.620	1.51576	2.07E-06
0.625	1.51514	2.27E-06
0.630	1.51530	2.49E-06
0.635	1.51491	2.74E-06
0.640	1.51491	2.99E-06
0.645	1.51453	3.28E-06
0.650	1.51491	3.58E-06
0.655	1.51476	3.91E-06
0.660	1.51422	4.25E-06
0.665	1.51360	4.61E-06
0.670	1.51275	5.01E-06
0.675	1.51221	5.42E-06
0.680	1.51236	5.89E-06
0.685	1.51182	6.40E-06
0.690	1.51228	6.94E-06
0.695	1.51197	7.53E-06
0.700	1.51205	8.14E-06
0.705	1.51197	8.80E-06
0.710	1.51197	9.48E-06
0.715	1.51205	1.02E-05
0.720	1.51190	1.10E-05
0.725	1.51159	1.17E-05
0.730	1.51213	1.26E-05
0.735	1.51151	1.34E-05
0.740	1.51143	1.43E-05
0.745	1.51174	1.53E-05
0.750	1.51182	1.63E-05
0.755	1.51182	1.74E-05
0.760	1.51159	1.85E-05
0.765	1.51136	1.96E-05
0.770	1.51120	2.08E-05
0.775	1.51190	2.21E-05
0.780	1.51190	2.34E-05
0.785	1.51089	2.48E-05
0.790	1.51074	2.62E-05
0.795	1.51136	2.76E-05
0.800	1.51136	2.91E-05
0.805	1.51112	3.07E-05
0.810	1.51089	3.23E-05
0.815	1.51081	3.40E-05
0.820	1.51004	3.57E-05
0.825	1.51058	3.74E-05
0.830	1.51012	3.92E-05
0.835	1.51074	4.11E-05
0.840	1.50973	4.29E-05
0.845	1.50950	4.48E-05
0.850	1.50141	4.73E-05
0.855	1.49287	4.98E-05
0.860	1.49452	5.21E-05
0.865	1.49734	5.42E-05
0.870	1.49491	5.65E-05
0.875	1.49295	5.88E-05
0.880	1.49421	6.10E-05
0.885	1.49405	6.33E-05
0.890	1.49460	6.57E-05
0.895	1.49617	6.80E-05
0.900	1.49334	7.04E-05
0.905	1.49303	7.27E-05
0.910	1.49765	7.52E-05
0.915	1.49883	7.76E-05
0.920	1.49585	8.00E-05
0.925	1.49538	8.25E-05
0.930	1.49617	8.49E-05
0.935	1.49828	8.76E-05
0.940	1.49468	9.00E-05
0.945	1.49554	9.27E-05
0.950	1.49452	9.52E-05
0.955	1.49483	9.81E-05
0.960	1.49216	1.00E-04
0.965	1.49562	1.03E-04
0.970	1.49593	1.05E-04
0.975	1.49413	1.08E-04
0.980	1.49413	1.10E-04
0.985	1.49413	1.13E-04
0.990	1.49311	1.15E-04
0.995	1.49624	1.18E-04
1.000	1.49468	1.20E-04
1.005	1.49593	1.23E-04
1.010	1.49240	1.26E-04
1.015	1.49491	1.28E-04
1.020	1.49483	1.30E-04
1.025	1.49444	1.32E-04
1.030	1.49405	1.35E-04
1.035	1.49656	1.38E-04
1.040	1.49436	1.40E-04
1.045	1.49538	1.43E-04
1.050	1.49421	1.45E-04
1.055	1.49287	1.47E-04
1.060	1.49515	1.49E-04
1.065	1.49413	1.50E-04
1.070	1.49350	1.52E-04
1.075	1.49538	1.55E-04
1.080	1.49216	1.57E-04
1.085	1.49413	1.57E-04
1.090	1.49585	1.60E-04
1.095	1.49436	1.62E-04
1.100	1.49122	1.65E-04
1.105	1.49381	1.66E-04
1.110	1.49303	1.67E-04
1.115	1.49256	1.70E-04
1.120	1.49397	1.71E-04
1.125	1.49491	1.70E-04
1.130	1.49311	1.72E-04
1.135	1.49381	1.75E-04
1.140	1.49421	1.78E-04
1.145	1.49436	1.78E-04
1.150	1.49460	1.81E-04
1.155	1.49342	1.79E-04
1.160	1.49421	1.83E-04
1.165	1.49201	1.82E-04
1.170	1.49279	1.84E-04
1.175	1.49334	1.86E-04
1.180	1.49114	1.83E-04
1.185	1.49240	1.86E-04
1.190	1.49405	1.88E-04
1.195	1.49515	1.90E-04
1.200	1.49475	1.88E-04
1.205	1.49138	1.94E-04
1.210	1.49381	1.91E-04
1.215	1.49318	1.91E-04
1.220	1.49428	1.92E-04
1.225	1.49161	1.92E-04
1.230	1.49263	1.92E-04
1.235	1.49051	1.94E-04
1.240	1.49201	1.92E-04
1.245	1.49232	1.98E-04
1.250	1.49201	1.94E-04
1.255	1.49263	1.97E-04
1.260	1.49318	1.96E-04
1.265	1.49585	2.00E-04
1.270	1.49075	1.97E-04
1.275	1.49436	1.99E-04
1.280	1.49311	1.97E-04
1.285	1.49216	1.98E-04
1.290	1.49201	1.98E-04
1.295	1.49303	2.01E-04
1.300	1.49318	2.00E-04
1.305	1.49059	2.00E-04
1.310	1.49020	1.99E-04
1.315	1.49318	2.00E-04
1.320	1.49020	2.00E-04
1.325	1.49224	1.98E-04
1.330	1.49059	1.98E-04
1.335	1.49043	2.00E-04
1.340	1.49161	2.00E-04
1.345	1.49051	2.00E-04
1.350	1.48893	1.98E-04
1.355	1.49043	1.99E-04
1.360	1.49098	1.98E-04
1.365	1.49122	2.01E-04
1.370	1.48704	1.98E-04
1.375	1.48980	2.00E-04
1.380	1.49012	1.99E-04
1.385	1.48649	1.98E-04
1.390	1.49075	1.98E-04
1.395	1.48720	1.98E-04
1.400	1.48925	1.99E-04
1.405	1.48815	1.98E-04
1.410	1.48901	1.98E-04
1.415	1.48862	1.98E-04
1.420	1.49177	1.98E-04
1.425	1.48822	1.97E-04
1.430	1.49122	1.95E-04
1.435	1.48893	1.96E-04
1.440	1.49043	1.96E-04
1.445	1.48996	1.96E-04
1.450	1.48878	1.94E-04
1.455	1.49169	1.94E-04
1.460	1.48933	1.94E-04
1.465	1.49043	1.94E-04
1.470	1.48893	1.93E-04
1.475	1.49035	1.93E-04
1.480	1.48980	1.93E-04
1.485	1.49035	1.91E-04
1.490	1.49067	1.92E-04
1.495	1.48791	1.91E-04
1.500	1.48830	1.90E-04
1.505	1.49027	1.88E-04
1.510	1.48838	1.88E-04
1.515	1.49020	1.87E-04
1.520	1.48862	1.88E-04
1.525	1.48933	1.87E-04
1.530	1.49106	1.86E-04
1.535	1.48838	1.85E-04
1.540	1.48949	1.84E-04
1.545	1.48893	1.84E-04
1.550	1.48933	1.83E-04
1.555	1.48949	1.82E-04
1.560	1.48783	1.82E-04
1.565	1.48830	1.82E-04
1.570	1.48799	1.81E-04
1.575	1.48530	1.80E-04
1.580	1.48799	1.79E-04
1.585	1.48783	1.79E-04
1.590	1.48720	1.78E-04
1.595	1.48791	1.78E-04
1.600	1.48744	1.77E-04
1.605	1.49043	1.77E-04
1.610	1.48633	1.76E-04
1.615	1.49083	1.75E-04
1.620	1.48830	1.74E-04
1.625	1.48846	1.74E-04
1.630	1.48688	1.73E-04
1.635	1.48917	1.73E-04
1.640	1.48720	1.73E-04
1.645	1.48562	1.72E-04
1.650	1.48696	1.71E-04
1.655	1.48893	1.71E-04
1.660	1.48751	1.71E-04
1.665	1.48633	1.70E-04
1.670	1.48799	1.70E-04
1.675	1.48736	1.69E-04
1.680	1.48744	1.69E-04
1.685	1.48475	1.69E-04
1.690	1.48546	1.69E-04
1.695	1.48736	1.68E-04
1.700	1.48617	1.69E-04
1.705	1.48538	1.68E-04
1.710	1.48530	1.68E-04
1.715	1.48483	1.68E-04
1.720	1.48609	1.67E-04
1.725	1.48530	1.67E-04
1.730	1.48443	1.67E-04
1.735	1.48751	1.67E-04
1.740	1.48412	1.67E-04
1.745	1.48451	1.68E-04
1.750	1.48483	1.67E-04
1.755	1.48364	1.68E-04
1.760	1.48546	1.68E-04
1.765	1.48491	1.68E-04
1.770	1.48625	1.68E-04
1.775	1.48277	1.68E-04
1.780	1.48578	1.69E-04
1.785	1.48364	1.69E-04
1.790	1.48420	1.69E-04
1.795	1.48277	1.70E-04
1.800	1.48356	1.70E-04
1.805	1.48404	1.70E-04
1.810	1.48546	1.71E-04
1.815	1.48317	1.71E-04
1.820	1.48522	1.72E-04
1.825	1.48364	1.72E-04
1.830	1.48317	1.73E-04
1.835	1.48451	1.73E-04
1.840	1.47967	1.74E-04
1.845	1.48451	1.74E-04
1.850	1.48221	1.75E-04
1.855	1.48380	1.76E-04
1.860	1.48229	1.76E-04
1.865	1.48332	1.77E-04
1.870	1.48309	1.78E-04
1.875	1.48396	1.79E-04
1.880	1.48293	1.80E-04
1.885	1.48150	1.80E-04
1.890	1.48071	1.81E-04
1.895	1.48356	1.82E-04
1.900	1.48269	1.83E-04
1.905	1.48324	1.84E-04
1.910	1.48102	1.85E-04
1.915	1.48261	1.86E-04
1.920	1.48317	1.86E-04
1.925	1.48229	1.87E-04
1.930	1.47991	1.88E-04
1.935	1.48166	1.90E-04
1.940	1.48221	1.90E-04
1.945	1.48261	1.91E-04
1.950	1.48214	1.92E-04
1.955	1.47896	1.93E-04
1.960	1.48237	1.94E-04
1.965	1.48047	1.95E-04
1.970	1.48419	1.96E-04
1.975	1.48087	1.97E-04
1.980	1.48071	1.99E-04
1.985	1.48039	1.99E-04
1.990	1.48245	2.00E-04
1.995	1.47967	2.01E-04
2.000	1.48079	2.02E-04
