Material: isuzu / filter / IUV355
Optical constants. Data kindly provided by Koichiro Ikeda, ISUZU GLASS LTD. Nov 2024. See also Isuzu Glass Products
Comments: UV transmitting filter, Visible absorbing filter (IUV series).
wavelength (um)	n	k
0.200	1.68036	4.73E-05
0.205	1.66605	4.85E-05
0.210	1.65609	5.21E-05
0.215	1.64646	5.48E-05
0.220	1.63753	5.71E-05
0.225	1.62946	5.72E-05
0.230	1.62596	6.00E-05
0.235	1.61706	6.10E-05
0.240	1.61307	6.32E-05
0.245	1.60507	6.54E-05
0.250	1.60117	6.74E-05
0.255	1.59310	6.91E-05
0.260	1.59294	7.09E-05
0.265	1.58982	7.20E-05
0.270	1.58351	7.49E-05
0.275	1.58356	7.62E-05
0.280	1.58117	7.34E-05
0.285	1.57881	6.45E-05
0.290	1.57654	5.26E-05
0.295	1.57348	4.22E-05
0.300	1.57007	3.37E-05
0.305	1.56723	2.68E-05
0.310	1.56532	2.12E-05
0.315	1.56433	1.67E-05
0.320	1.56335	1.31E-05
0.325	1.56041	1.03E-05
0.330	1.56020	8.18E-06
0.335	1.55810	6.58E-06
0.340	1.55697	5.37E-06
0.345	1.55879	4.58E-06
0.350	1.55735	4.10E-06
0.355	1.55482	3.98E-06
0.360	1.55330	4.28E-06
0.365	1.55229	5.31E-06
0.370	1.55209	7.56E-06
0.375	1.55136	1.20E-05
0.380	1.55031	2.01E-05
0.385	1.54995	3.38E-05
0.390	1.54890	5.59E-05
0.395	1.54756	8.48E-05
0.400	1.54589	1.04E-04
0.405	1.54617	1.10E-04
0.410	1.54502	1.11E-04
0.415	1.54459	1.14E-04
0.420	1.54315	1.16E-04
0.425	1.54261	1.19E-04
0.430	1.54196	1.20E-04
0.435	1.54147	1.23E-04
0.440	1.54155	1.24E-04
0.445	1.54036	1.25E-04
0.450	1.54009	1.29E-04
0.455	1.54027	1.28E-04
0.460	1.54015	1.31E-04
0.465	1.53950	1.30E-04
0.470	1.53949	1.31E-04
0.475	1.53809	1.31E-04
0.480	1.53767	1.32E-04
0.485	1.53673	1.35E-04
0.490	1.53648	1.36E-04
0.495	1.53562	1.41E-04
0.500	1.53568	1.41E-04
0.505	1.53541	1.43E-04
0.510	1.53461	1.45E-04
0.515	1.53466	1.47E-04
0.520	1.53450	1.47E-04
0.525	1.53380	1.51E-04
0.530	1.53346	1.53E-04
0.535	1.53317	1.53E-04
0.540	1.53327	1.53E-04
0.545	1.53265	1.57E-04
0.550	1.53216	1.59E-04
0.555	1.53208	1.59E-04
0.560	1.53183	1.60E-04
0.565	1.53161	1.64E-04
0.570	1.53162	1.66E-04
0.575	1.53117	1.63E-04
0.580	1.53126	1.66E-04
0.585	1.53093	1.67E-04
0.590	1.53059	1.72E-04
0.595	1.53085	1.68E-04
0.600	1.53023	1.68E-04
0.605	1.52970	1.70E-04
0.610	1.52996	1.67E-04
0.615	1.52970	1.69E-04
0.620	1.52963	1.69E-04
0.625	1.52929	1.71E-04
0.630	1.52909	1.69E-04
0.635	1.52847	1.71E-04
0.640	1.52869	1.71E-04
0.645	1.52894	1.72E-04
0.650	1.52906	1.72E-04
0.655	1.52867	1.68E-04
0.660	1.52860	1.65E-04
0.665	1.52742	1.66E-04
0.670	1.52744	1.60E-04
0.675	1.52651	1.39E-04
0.680	1.52647	1.16E-04
0.685	1.52672	9.73E-05
0.690	1.52635	8.31E-05
0.695	1.52644	7.30E-05
0.700	1.52651	6.67E-05
0.705	1.52535	6.33E-05
0.710	1.52583	6.10E-05
0.715	1.52606	5.94E-05
0.720	1.52598	5.91E-05
0.725	1.52563	6.06E-05
0.730	1.52589	6.39E-05
0.735	1.52596	6.86E-05
0.740	1.52508	7.43E-05
0.745	1.52526	8.04E-05
0.750	1.52567	8.69E-05
0.755	1.52502	9.36E-05
0.760	1.52553	1.00E-04
0.765	1.52490	1.08E-04
0.770	1.52503	1.15E-04
0.775	1.52481	1.22E-04
0.780	1.52505	1.30E-04
0.785	1.52553	1.37E-04
0.790	1.52567	1.44E-04
0.795	1.52487	1.51E-04
0.800	1.52520	1.57E-04
0.805	1.52421	1.63E-04
0.810	1.52397	1.70E-04
0.815	1.52430	1.75E-04
0.820	1.52306	1.80E-04
0.825	1.52302	1.85E-04
0.830	1.52479	1.90E-04
0.835	1.52279	1.94E-04
0.840	1.52280	1.98E-04
0.845	1.52465	2.01E-04
0.850	1.51352	1.88E-04
0.855	1.51570	2.20E-04
0.860	1.51415	2.05E-04
0.865	1.51515	2.05E-04
0.870	1.51149	2.28E-04
0.875	1.51330	2.57E-04
0.880	1.51438	1.91E-04
0.885	1.51288	2.31E-04
0.890	1.51980	2.09E-04
0.895	1.51608	2.08E-04
0.900	1.51964	2.24E-04
0.905	1.51751	2.48E-04
0.910	1.52060	2.02E-04
0.915	1.51954	3.01E-04
0.920	1.52147	2.04E-04
0.925	1.52203	2.47E-04
0.930	1.52285	2.36E-04
0.935	1.52283	2.13E-04
0.940	1.52160	2.13E-04
0.945	1.52172	2.34E-04
0.950	1.52091	2.14E-04
0.955	1.52220	2.04E-04
0.960	1.52086	2.24E-04
0.965	1.52194	2.06E-04
0.970	1.52020	2.13E-04
0.975	1.52151	2.14E-04
0.980	1.52090	1.92E-04
0.985	1.52115	2.00E-04
0.990	1.52043	1.90E-04
0.995	1.52223	1.95E-04
1.000	1.52233	1.97E-04
1.005	1.52060	1.98E-04
1.010	1.52089	1.92E-04
1.015	1.52022	1.89E-04
1.020	1.52069	1.93E-04
1.025	1.51934	1.89E-04
1.030	1.52179	1.86E-04
1.035	1.52107	1.90E-04
1.040	1.51937	1.87E-04
1.045	1.52101	1.90E-04
1.050	1.51973	1.90E-04
1.055	1.52041	1.92E-04
1.060	1.51976	1.91E-04
1.065	1.52019	1.82E-04
1.070	1.51995	1.89E-04
1.075	1.52021	1.89E-04
1.080	1.51933	1.92E-04
1.085	1.51844	1.94E-04
1.090	1.52042	1.92E-04
1.095	1.51968	1.95E-04
1.100	1.52070	1.89E-04
1.105	1.51975	1.94E-04
1.110	1.51946	1.98E-04
1.115	1.52010	2.02E-04
1.120	1.51823	1.99E-04
1.125	1.52011	2.03E-04
1.130	1.51857	2.03E-04
1.135	1.51842	2.09E-04
1.140	1.51822	2.11E-04
1.145	1.51912	2.25E-04
1.150	1.51815	2.15E-04
1.155	1.51875	2.21E-04
1.160	1.51803	2.18E-04
1.165	1.51713	2.24E-04
1.170	1.51818	2.23E-04
1.175	1.51746	2.15E-04
1.180	1.51764	2.35E-04
1.185	1.51819	2.39E-04
1.190	1.51826	2.53E-04
1.195	1.51876	2.48E-04
1.200	1.51784	2.59E-04
1.205	1.51754	2.54E-04
1.210	1.51686	2.39E-04
1.215	1.51763	2.66E-04
1.220	1.51717	2.32E-04
1.225	1.51774	2.53E-04
1.230	1.51627	2.58E-04
1.235	1.51751	2.77E-04
1.240	1.51606	3.15E-04
1.245	1.51782	2.75E-04
1.250	1.51628	2.89E-04
1.255	1.51643	2.65E-04
1.260	1.51670	2.71E-04
1.265	1.51690	2.90E-04
1.270	1.51686	3.09E-04
1.275	1.51785	2.84E-04
1.280	1.51598	3.67E-04
1.285	1.51709	2.73E-04
1.290	1.51605	3.27E-04
1.295	1.51640	3.01E-04
1.300	1.51718	3.37E-04
1.305	1.51625	2.75E-04
1.310	1.51491	4.61E-04
1.315	1.51607	3.23E-04
1.320	1.51680	3.88E-04
1.325	1.51554	3.34E-04
1.330	1.51605	3.22E-04
1.335	1.51537	3.04E-04
1.340	1.51668	3.58E-04
1.345	1.51630	3.32E-04
1.350	1.51536	3.10E-04
1.355	1.51598	3.31E-04
1.360	1.51594	3.99E-04
1.365	1.51561	4.17E-04
1.370	1.51543	3.25E-04
1.375	1.51520	3.50E-04
1.380	1.51458	2.97E-04
1.385	1.51417	2.89E-04
1.390	1.51460	3.03E-04
1.395	1.51384	3.29E-04
1.400	1.51508	3.06E-04
1.405	1.51487	3.46E-04
1.410	1.51489	3.92E-04
1.415	1.51547	3.58E-04
1.420	1.51460	3.05E-04
1.425	1.51517	3.57E-04
1.430	1.51455	4.10E-04
1.435	1.51412	3.10E-04
1.440	1.51489	3.85E-04
1.445	1.51606	3.68E-04
1.450	1.51303	3.17E-04
1.455	1.51419	3.72E-04
1.460	1.51391	3.27E-04
1.465	1.51372	3.20E-04
1.470	1.51440	3.45E-04
1.475	1.51442	4.15E-04
1.480	1.51498	3.04E-04
1.485	1.51429	6.10E-04
1.490	1.51321	3.41E-04
1.495	1.51512	4.20E-04
1.500	1.51349	3.21E-04
1.505	1.51391	3.18E-04
1.510	1.51342	3.74E-04
1.515	1.51343	5.18E-04
1.520	1.51474	3.63E-04
1.525	1.51351	3.81E-04
1.530	1.51409	3.77E-04
1.535	1.51393	3.42E-04
1.540	1.51275	3.39E-04
1.545	1.51387	4.38E-04
1.550	1.51379	3.35E-04
1.555	1.51152	3.66E-04
1.560	1.51384	3.98E-04
1.565	1.51304	3.37E-04
1.570	1.51410	4.04E-04
1.575	1.51295	4.64E-04
1.580	1.51286	3.54E-04
1.585	1.51346	4.53E-04
1.590	1.51228	3.84E-04
1.595	1.51245	3.87E-04
1.600	1.51236	4.29E-04
1.605	1.51397	4.29E-04
1.610	1.51229	3.78E-04
1.615	1.51350	3.68E-04
1.620	1.51242	3.74E-04
1.625	1.51299	4.43E-04
1.630	1.51225	3.58E-04
1.635	1.51096	3.66E-04
1.640	1.51207	4.07E-04
1.645	1.51146	4.23E-04
1.650	1.51164	4.48E-04
1.655	1.51181	4.26E-04
1.660	1.51189	3.69E-04
1.665	1.51084	4.08E-04
1.670	1.51012	3.89E-04
1.675	1.51041	4.40E-04
1.680	1.51066	3.54E-04
1.685	1.51003	3.88E-04
1.690	1.51054	4.22E-04
1.695	1.51068	3.84E-04
1.700	1.51008	4.09E-04
1.705	1.51141	4.44E-04
1.710	1.51052	4.35E-04
1.715	1.50961	4.40E-04
1.720	1.50995	4.26E-04
1.725	1.51067	4.34E-04
1.730	1.51100	4.57E-04
1.735	1.50962	4.55E-04
1.740	1.51027	4.64E-04
1.745	1.50972	6.22E-04
1.750	1.50959	4.66E-04
1.755	1.51065	4.91E-04
1.760	1.51057	5.29E-04
1.765	1.50932	3.91E-04
1.770	1.50963	4.82E-04
1.775	1.50976	4.24E-04
1.780	1.51085	4.09E-04
1.785	1.51008	4.55E-04
1.790	1.50947	4.38E-04
1.795	1.51001	4.77E-04
1.800	1.50987	4.68E-04
1.805	1.50945	4.19E-04
1.810	1.50809	4.48E-04
1.815	1.50924	5.48E-04
1.820	1.50910	4.21E-04
1.825	1.50933	4.03E-04
1.830	1.50942	4.08E-04
1.835	1.50770	5.13E-04
1.840	1.50878	4.45E-04
1.845	1.50790	5.63E-04
1.850	1.50907	4.17E-04
1.855	1.50799	5.28E-04
1.860	1.50854	5.58E-04
1.865	1.50938	4.41E-04
1.870	1.50810	4.07E-04
1.875	1.50803	5.04E-04
1.880	1.50752	5.43E-04
1.885	1.50789	5.19E-04
1.890	1.50850	4.06E-04
1.895	1.50772	4.28E-04
1.900	1.50797	4.64E-04
1.905	1.50733	4.61E-04
1.910	1.50846	4.99E-04
1.915	1.50765	4.48E-04
1.920	1.50657	4.30E-04
1.925	1.50763	4.61E-04
1.930	1.50747	4.62E-04
1.935	1.50844	5.39E-04
1.940	1.50712	5.35E-04
1.945	1.50849	6.38E-04
1.950	1.50787	4.08E-04
1.955	1.50862	4.47E-04
1.960	1.50774	4.57E-04
1.965	1.50795	4.63E-04
1.970	1.50847	4.29E-04
1.975	1.50856	4.11E-04
1.980	1.50774	4.45E-04
1.985	1.50784	4.68E-04
1.990	1.50579	4.42E-04
1.995	1.50623	4.73E-04
2.000	1.50465	4.55E-04
