Material: isuzu / filter / IVB490
Optical constants. Data kindly provided by Koichiro Ikeda, ISUZU GLASS LTD. Nov 2024. See also Isuzu Glass Products
Comments: Blue filter (IEB, IVB series).
wavelength (um)	n	k
0.200	1.65103	5.67E-05
0.205	1.62651	6.08E-05
0.210	1.63719	6.31E-05
0.215	1.62207	6.70E-05
0.220	1.62161	6.85E-05
0.225	1.61643	7.01E-05
0.230	1.61490	7.33E-05
0.235	1.60663	7.19E-05
0.240	1.60483	7.48E-05
0.245	1.60021	7.81E-05
0.250	1.59757	7.97E-05
0.255	1.59201	8.13E-05
0.260	1.59081	8.53E-05
0.265	1.58847	8.70E-05
0.270	1.58547	8.86E-05
0.275	1.58148	9.03E-05
0.280	1.57818	9.19E-05
0.285	1.57769	9.72E-05
0.290	1.57410	9.52E-05
0.295	1.57236	9.68E-05
0.300	1.56807	9.85E-05
0.305	1.56704	1.11E-04
0.310	1.56285	1.06E-04
0.315	1.56184	1.07E-04
0.320	1.56212	1.09E-04
0.325	1.55788	1.11E-04
0.330	1.55396	1.20E-04
0.335	1.55631	1.14E-04
0.340	1.55446	1.12E-04
0.345	1.55422	1.10E-04
0.350	1.55195	1.12E-04
0.355	1.55294	1.13E-04
0.360	1.55012	1.12E-04
0.365	1.54970	1.12E-04
0.370	1.54775	1.05E-04
0.375	1.54879	9.74E-05
0.380	1.54755	8.84E-05
0.385	1.54667	7.91E-05
0.390	1.54614	7.01E-05
0.395	1.54522	6.12E-05
0.400	1.54501	5.28E-05
0.405	1.54315	4.51E-05
0.410	1.54296	3.82E-05
0.415	1.54267	3.23E-05
0.420	1.54065	2.72E-05
0.425	1.54025	2.32E-05
0.430	1.54011	2.00E-05
0.435	1.53954	1.74E-05
0.440	1.53874	1.54E-05
0.445	1.53923	1.38E-05
0.450	1.53787	1.26E-05
0.455	1.53769	1.16E-05
0.460	1.53777	1.08E-05
0.465	1.53708	1.03E-05
0.470	1.53625	9.88E-06
0.475	1.53683	9.61E-06
0.480	1.53576	9.44E-06
0.485	1.53444	9.39E-06
0.490	1.53433	9.43E-06
0.495	1.53365	9.59E-06
0.500	1.53332	9.85E-06
0.505	1.53327	1.02E-05
0.510	1.53336	1.07E-05
0.515	1.53250	1.13E-05
0.520	1.53229	1.21E-05
0.525	1.53199	1.30E-05
0.530	1.53185	1.41E-05
0.535	1.53203	1.53E-05
0.540	1.53128	1.67E-05
0.545	1.53125	1.84E-05
0.550	1.53024	2.03E-05
0.555	1.53066	2.25E-05
0.560	1.53019	2.50E-05
0.565	1.53009	2.79E-05
0.570	1.52956	3.11E-05
0.575	1.52999	3.47E-05
0.580	1.52962	3.86E-05
0.585	1.52935	4.30E-05
0.590	1.52917	4.77E-05
0.595	1.52893	5.29E-05
0.600	1.52875	5.85E-05
0.605	1.52837	6.45E-05
0.610	1.52830	7.10E-05
0.615	1.52838	7.79E-05
0.620	1.52817	8.53E-05
0.625	1.52790	9.31E-05
0.630	1.52788	1.01E-04
0.635	1.52786	1.10E-04
0.640	1.52755	1.19E-04
0.645	1.52743	1.28E-04
0.650	1.52705	1.38E-04
0.655	1.52769	1.48E-04
0.660	1.52645	1.57E-04
0.665	1.52634	1.67E-04
0.670	1.52574	1.78E-04
0.675	1.52504	1.89E-04
0.680	1.52486	2.00E-04
0.685	1.52475	2.10E-04
0.690	1.52562	2.16E-04
0.695	1.52565	2.28E-04
0.700	1.52497	2.39E-04
0.705	1.52554	2.41E-04
0.710	1.52563	2.43E-04
0.715	1.52532	2.44E-04
0.720	1.52492	2.62E-04
0.725	1.52471	2.64E-04
0.730	1.52476	2.49E-04
0.735	1.52431	2.67E-04
0.740	1.52518	2.69E-04
0.745	1.52582	2.71E-04
0.750	1.52485	2.73E-04
0.755	1.52520	2.75E-04
0.760	1.52548	2.76E-04
0.765	1.52598	2.78E-04
0.770	1.52469	2.80E-04
0.775	1.52489	2.82E-04
0.780	1.52408	2.84E-04
0.785	1.52604	2.85E-04
0.790	1.52528	2.70E-04
0.795	1.52362	2.89E-04
0.800	1.52524	2.91E-04
0.805	1.52466	2.93E-04
0.810	1.52448	2.95E-04
0.815	1.52445	2.96E-04
0.820	1.52436	2.98E-04
0.825	1.52501	3.00E-04
0.830	1.52435	3.02E-04
0.835	1.52389	3.04E-04
0.840	1.52377	3.05E-04
0.845	1.52129	2.59E-04
0.850	1.51486	2.33E-04
0.855	1.51141	2.62E-04
0.860	1.51201	2.50E-04
0.865	1.51594	2.49E-04
0.870	1.51063	2.53E-04
0.875	1.51369	2.36E-04
0.880	1.51840	2.39E-04
0.885	1.51733	2.71E-04
0.890	1.51671	2.93E-04
0.895	1.51793	2.70E-04
0.900	1.51833	2.26E-04
0.905	1.51894	2.39E-04
0.910	1.51993	2.46E-04
0.915	1.52052	2.50E-04
0.920	1.52014	3.35E-04
0.925	1.52159	3.04E-04
0.930	1.52303	2.45E-04
0.935	1.52292	3.07E-04
0.940	1.52100	2.57E-04
0.945	1.52333	2.72E-04
0.950	1.52051	2.56E-04
0.955	1.52159	3.05E-04
0.960	1.52194	2.94E-04
0.965	1.52273	2.96E-04
0.970	1.52251	2.51E-04
0.975	1.52291	2.75E-04
0.980	1.52316	2.59E-04
0.985	1.52151	2.68E-04
0.990	1.52069	2.99E-04
0.995	1.52221	3.27E-04
1.000	1.52203	2.82E-04
1.005	1.52107	2.86E-04
1.010	1.52198	3.23E-04
1.015	1.52143	2.95E-04
1.020	1.52148	3.48E-04
1.025	1.52157	3.73E-04
1.030	1.52200	2.69E-04
1.035	1.52106	2.95E-04
1.040	1.52065	3.14E-04
1.045	1.52087	3.44E-04
1.050	1.52067	3.45E-04
1.055	1.52032	2.81E-04
1.060	1.51972	3.62E-04
1.065	1.52006	3.17E-04
1.070	1.52054	2.77E-04
1.075	1.51935	3.20E-04
1.080	1.51983	3.10E-04
1.085	1.51992	3.19E-04
1.090	1.51968	2.89E-04
1.095	1.52035	3.26E-04
1.100	1.52127	2.87E-04
1.105	1.52002	3.12E-04
1.110	1.51996	2.84E-04
1.115	1.52050	3.36E-04
1.120	1.51928	3.16E-04
1.125	1.52040	3.12E-04
1.130	1.51992	3.22E-04
1.135	1.51961	3.88E-04
1.140	1.51829	3.22E-04
1.145	1.51852	3.26E-04
1.150	1.51984	3.38E-04
1.155	1.51923	3.29E-04
1.160	1.51930	3.20E-04
1.165	1.51943	3.11E-04
1.170	1.51846	3.30E-04
1.175	1.51912	4.01E-04
1.180	1.51890	3.25E-04
1.185	1.51864	3.31E-04
1.190	1.51851	2.95E-04
1.195	1.51811	3.01E-04
1.200	1.51914	3.22E-04
1.205	1.51996	2.87E-04
1.210	1.51856	3.00E-04
1.215	1.51938	3.10E-04
1.220	1.51790	3.02E-04
1.225	1.51908	2.89E-04
1.230	1.51824	3.18E-04
1.235	1.51933	2.79E-04
1.240	1.51872	2.91E-04
1.245	1.51837	2.74E-04
1.250	1.51858	2.72E-04
1.255	1.51814	2.72E-04
1.260	1.51802	2.62E-04
1.265	1.51852	2.63E-04
1.270	1.51895	2.58E-04
1.275	1.51670	2.58E-04
1.280	1.51893	2.56E-04
1.285	1.51822	2.46E-04
1.290	1.51780	2.48E-04
1.295	1.51873	2.40E-04
1.300	1.51769	2.37E-04
1.305	1.51843	2.38E-04
1.310	1.51772	2.34E-04
1.315	1.51803	2.31E-04
1.320	1.51785	2.26E-04
1.325	1.51741	2.23E-04
1.330	1.51699	2.20E-04
1.335	1.51712	2.17E-04
1.340	1.51684	2.15E-04
1.345	1.51728	2.11E-04
1.350	1.51754	2.08E-04
1.355	1.51685	2.06E-04
1.360	1.51585	2.03E-04
1.365	1.51631	2.00E-04
1.370	1.51681	1.98E-04
1.375	1.51700	1.94E-04
1.380	1.51633	1.91E-04
1.385	1.51615	1.89E-04
1.390	1.51620	1.86E-04
1.395	1.51466	1.83E-04
1.400	1.51537	1.81E-04
1.405	1.51630	1.78E-04
1.410	1.51580	1.75E-04
1.415	1.51525	1.73E-04
1.420	1.51606	1.71E-04
1.425	1.51603	1.69E-04
1.430	1.51440	1.66E-04
1.435	1.51706	1.63E-04
1.440	1.51671	1.61E-04
1.445	1.51515	1.59E-04
1.450	1.51636	1.57E-04
1.455	1.51586	1.54E-04
1.460	1.51506	1.52E-04
1.465	1.51674	1.50E-04
1.470	1.51541	1.47E-04
1.475	1.51526	1.45E-04
1.480	1.51527	1.43E-04
1.485	1.51496	1.41E-04
1.490	1.51554	1.39E-04
1.495	1.51580	1.37E-04
1.500	1.51485	1.35E-04
1.505	1.51409	1.33E-04
1.510	1.51500	1.31E-04
1.515	1.51584	1.29E-04
1.520	1.51528	1.27E-04
1.525	1.51418	1.26E-04
1.530	1.51448	1.24E-04
1.535	1.51498	1.22E-04
1.540	1.51468	1.20E-04
1.545	1.51456	1.18E-04
1.550	1.51455	1.17E-04
1.555	1.51414	1.15E-04
1.560	1.51410	1.13E-04
1.565	1.51506	1.12E-04
1.570	1.51336	1.10E-04
1.575	1.51405	1.08E-04
1.580	1.51510	1.07E-04
1.585	1.51513	1.05E-04
1.590	1.51343	1.04E-04
1.595	1.51493	1.02E-04
1.600	1.51459	1.01E-04
1.605	1.51360	9.95E-05
1.610	1.51312	9.81E-05
1.615	1.51381	9.67E-05
1.620	1.51368	9.54E-05
1.625	1.51379	9.40E-05
1.630	1.51323	9.27E-05
1.635	1.51395	9.14E-05
1.640	1.51292	9.01E-05
1.645	1.51372	8.88E-05
1.650	1.51416	8.76E-05
1.655	1.51275	8.64E-05
1.660	1.51307	8.51E-05
1.665	1.51229	8.40E-05
1.670	1.51339	8.28E-05
1.675	1.51243	8.17E-05
1.680	1.51207	8.07E-05
1.685	1.51254	7.95E-05
1.690	1.51194	7.84E-05
1.695	1.51263	7.74E-05
1.700	1.51236	7.65E-05
1.705	1.51291	7.53E-05
1.710	1.51190	7.44E-05
1.715	1.51111	7.34E-05
1.720	1.51116	7.25E-05
1.725	1.51133	7.14E-05
1.730	1.51200	7.05E-05
1.735	1.51333	6.96E-05
1.740	1.51155	6.88E-05
1.745	1.51169	6.79E-05
1.750	1.51088	6.70E-05
1.755	1.51158	6.61E-05
1.760	1.51191	6.53E-05
1.765	1.51164	6.45E-05
1.770	1.51123	6.36E-05
1.775	1.51099	6.29E-05
1.780	1.51211	6.21E-05
1.785	1.51019	6.13E-05
1.790	1.51059	6.06E-05
1.795	1.51148	5.98E-05
1.800	1.51176	5.91E-05
1.805	1.51122	5.84E-05
1.810	1.51151	5.77E-05
1.815	1.50957	5.70E-05
1.820	1.51172	5.64E-05
1.825	1.51044	5.57E-05
1.830	1.51066	5.50E-05
1.835	1.50989	5.43E-05
1.840	1.51098	5.37E-05
1.845	1.50956	5.30E-05
1.850	1.50951	5.24E-05
1.855	1.50955	5.18E-05
1.860	1.50916	5.13E-05
1.865	1.50774	5.07E-05
1.870	1.50904	5.00E-05
1.875	1.50959	4.94E-05
1.880	1.50920	4.88E-05
1.885	1.50867	4.84E-05
1.890	1.50917	4.79E-05
1.895	1.50945	4.74E-05
1.900	1.50869	4.68E-05
1.905	1.50944	4.63E-05
1.910	1.50796	4.57E-05
1.915	1.50829	4.53E-05
1.920	1.50924	4.47E-05
1.925	1.50939	4.43E-05
1.930	1.50917	4.38E-05
1.935	1.50905	4.34E-05
1.940	1.51023	4.29E-05
1.945	1.50962	4.25E-05
1.950	1.51004	4.21E-05
1.955	1.50883	4.17E-05
1.960	1.50836	4.13E-05
1.965	1.50974	4.09E-05
1.970	1.50845	4.05E-05
1.975	1.50913	4.02E-05
1.980	1.50874	3.97E-05
1.985	1.50843	3.94E-05
1.990	1.50801	3.90E-05
1.995	1.50831	3.87E-05
2.000	1.50712	3.84E-05
