Material: isuzu / filter / IVG530
Optical constants. Data kindly provided by Koichiro Ikeda, ISUZU GLASS LTD. Nov 2024. See also Isuzu Glass Products
Comments: Green filter (IVG series).
wavelength (um)	n	k
0.200	2.07449	1.27E-04
0.205	1.62949	1.26E-04
0.210	1.63288	1.30E-04
0.215	1.60414	1.31E-04
0.220	1.59476	1.35E-04
0.225	1.55444	1.35E-04
0.230	1.56530	1.39E-04
0.235	1.56492	1.42E-04
0.240	1.56537	1.45E-04
0.245	1.56283	1.48E-04
0.250	1.55248	1.58E-04
0.255	1.55150	1.54E-04
0.260	1.55210	1.56E-04
0.265	1.54962	1.59E-04
0.270	1.54214	1.61E-04
0.275	1.54652	1.65E-04
0.280	1.54130	1.67E-04
0.285	1.54577	1.80E-04
0.290	1.53180	1.74E-04
0.295	1.53485	1.76E-04
0.300	1.55519	1.80E-04
0.305	1.54486	1.82E-04
0.310	1.54516	1.86E-04
0.315	1.54501	1.88E-04
0.320	1.53614	2.01E-04
0.325	1.54947	2.06E-04
0.330	1.52399	2.07E-04
0.335	1.54055	2.00E-04
0.340	1.54244	2.03E-04
0.345	1.54009	2.06E-04
0.350	1.53568	2.09E-04
0.355	1.53233	2.11E-04
0.360	1.53599	2.15E-04
0.365	1.53165	2.29E-04
0.370	1.53652	2.21E-04
0.375	1.53195	2.36E-04
0.380	1.53088	2.26E-04
0.385	1.53203	2.29E-04
0.390	1.52775	2.45E-04
0.395	1.52760	2.48E-04
0.400	1.52928	2.19E-04
0.405	1.52637	1.93E-04
0.410	1.52476	1.69E-04
0.415	1.52744	1.47E-04
0.420	1.52561	1.27E-04
0.425	1.52469	1.12E-04
0.430	1.52369	9.83E-05
0.435	1.52407	8.41E-05
0.440	1.52446	7.23E-05
0.445	1.52461	6.18E-05
0.450	1.52353	5.32E-05
0.455	1.52146	4.55E-05
0.460	1.52399	3.91E-05
0.465	1.52100	3.38E-05
0.470	1.52031	2.92E-05
0.475	1.52062	2.55E-05
0.480	1.52023	2.23E-05
0.485	1.51800	1.97E-05
0.490	1.51931	1.75E-05
0.495	1.51676	1.56E-05
0.500	1.51869	1.41E-05
0.505	1.51777	1.29E-05
0.510	1.51777	1.19E-05
0.515	1.51700	1.13E-05
0.520	1.51676	1.09E-05
0.525	1.51669	1.07E-05
0.530	1.51676	1.08E-05
0.535	1.51646	1.11E-05
0.540	1.51561	1.16E-05
0.545	1.51653	1.24E-05
0.550	1.51630	1.35E-05
0.555	1.51584	1.49E-05
0.560	1.51584	1.65E-05
0.565	1.51522	1.84E-05
0.570	1.51429	2.07E-05
0.575	1.51468	2.32E-05
0.580	1.51453	2.62E-05
0.585	1.51429	2.96E-05
0.590	1.51437	3.32E-05
0.595	1.51422	3.72E-05
0.600	1.51414	4.16E-05
0.605	1.51368	4.63E-05
0.610	1.51399	5.13E-05
0.615	1.51422	5.67E-05
0.620	1.51329	6.21E-05
0.625	1.51360	6.78E-05
0.630	1.51306	7.36E-05
0.635	1.51298	7.95E-05
0.640	1.51213	8.55E-05
0.645	1.51344	9.15E-05
0.650	1.51283	9.74E-05
0.655	1.51213	1.03E-04
0.660	1.51314	1.09E-04
0.665	1.51136	1.15E-04
0.670	1.51174	1.21E-04
0.675	1.50981	1.26E-04
0.680	1.51105	1.32E-04
0.685	1.51058	1.38E-04
0.690	1.51066	1.43E-04
0.695	1.51027	1.48E-04
0.700	1.51128	1.53E-04
0.705	1.51089	1.59E-04
0.710	1.50973	1.64E-04
0.715	1.51174	1.68E-04
0.720	1.51081	1.73E-04
0.725	1.51112	1.78E-04
0.730	1.50934	1.83E-04
0.735	1.51027	1.86E-04
0.740	1.51019	1.91E-04
0.745	1.51151	1.95E-04
0.750	1.51066	1.98E-04
0.755	1.51019	2.05E-04
0.760	1.50872	2.07E-04
0.765	1.51089	2.11E-04
0.770	1.51128	2.13E-04
0.775	1.51143	2.21E-04
0.780	1.51097	2.22E-04
0.785	1.50911	2.24E-04
0.790	1.50942	2.28E-04
0.795	1.50833	2.35E-04
0.800	1.50996	2.41E-04
0.805	1.50825	2.36E-04
0.810	1.50911	2.40E-04
0.815	1.51012	2.44E-04
0.820	1.50919	2.45E-04
0.825	1.50880	2.49E-04
0.830	1.51252	2.42E-04
0.835	1.50802	2.44E-04
0.840	1.51182	2.45E-04
0.845	1.50476	2.47E-04
0.850	1.50973	2.46E-04
0.855	1.50647	2.47E-04
0.860	1.50771	2.47E-04
0.865	1.50592	2.46E-04
0.870	1.50522	2.47E-04
0.875	1.50367	2.46E-04
0.880	1.50724	2.45E-04
0.885	1.50841	2.45E-04
0.890	1.50794	2.43E-04
0.895	1.50818	2.42E-04
0.900	1.50981	2.40E-04
0.905	1.50911	2.38E-04
0.910	1.50825	2.36E-04
0.915	1.51097	2.34E-04
0.920	1.51012	2.32E-04
0.925	1.51027	2.29E-04
0.930	1.50825	2.27E-04
0.935	1.51205	2.24E-04
0.940	1.50825	2.21E-04
0.945	1.50934	2.18E-04
0.950	1.50919	2.16E-04
0.955	1.50841	2.13E-04
0.960	1.50787	2.10E-04
0.965	1.50686	2.07E-04
0.970	1.50973	2.04E-04
0.975	1.50864	2.02E-04
0.980	1.50833	1.99E-04
0.985	1.50864	1.96E-04
0.990	1.50686	1.93E-04
0.995	1.50872	1.91E-04
1.000	1.50748	1.88E-04
1.005	1.50756	1.85E-04
1.010	1.50546	1.83E-04
1.015	1.50647	1.81E-04
1.020	1.50787	1.78E-04
1.025	1.50608	1.76E-04
1.030	1.50833	1.73E-04
1.035	1.50670	1.71E-04
1.040	1.50616	1.69E-04
1.045	1.50693	1.66E-04
1.050	1.50701	1.64E-04
1.055	1.50701	1.62E-04
1.060	1.50569	1.60E-04
1.065	1.50701	1.58E-04
1.070	1.50561	1.56E-04
1.075	1.50546	1.54E-04
1.080	1.50686	1.52E-04
1.085	1.50833	1.50E-04
1.090	1.50600	1.48E-04
1.095	1.50522	1.46E-04
1.100	1.50709	1.44E-04
1.105	1.50623	1.43E-04
1.110	1.50585	1.41E-04
1.115	1.50538	1.39E-04
1.120	1.50662	1.38E-04
1.125	1.50507	1.36E-04
1.130	1.50476	1.34E-04
1.135	1.50515	1.33E-04
1.140	1.50546	1.31E-04
1.145	1.50522	1.29E-04
1.150	1.50499	1.28E-04
1.155	1.50499	1.26E-04
1.160	1.50491	1.25E-04
1.165	1.50460	1.23E-04
1.170	1.50437	1.22E-04
1.175	1.50515	1.20E-04
1.180	1.50507	1.19E-04
1.185	1.50421	1.17E-04
1.190	1.50468	1.16E-04
1.195	1.50367	1.14E-04
1.200	1.50429	1.13E-04
1.205	1.50468	1.12E-04
1.210	1.50413	1.10E-04
1.215	1.50445	1.09E-04
1.220	1.50328	1.07E-04
1.225	1.50437	1.06E-04
1.230	1.50398	1.05E-04
1.235	1.50328	1.03E-04
1.240	1.50304	1.02E-04
1.245	1.50265	1.01E-04
1.250	1.50312	9.92E-05
1.255	1.50343	9.77E-05
1.260	1.50374	9.65E-05
1.265	1.50328	9.53E-05
1.270	1.50359	9.41E-05
1.275	1.50382	9.26E-05
1.280	1.50359	9.14E-05
1.285	1.50312	9.03E-05
1.290	1.50359	8.89E-05
1.295	1.50265	8.77E-05
1.300	1.50273	8.66E-05
1.305	1.50320	8.53E-05
1.310	1.50250	8.43E-05
1.315	1.50156	8.30E-05
1.320	1.50148	8.19E-05
1.325	1.50273	8.07E-05
1.330	1.50195	7.96E-05
1.335	1.50148	7.84E-05
1.340	1.50281	7.71E-05
1.345	1.50211	7.64E-05
1.350	1.50070	7.53E-05
1.355	1.50211	7.42E-05
1.360	1.50203	7.32E-05
1.365	1.50156	7.22E-05
1.370	1.50250	7.10E-05
1.375	1.50211	7.01E-05
1.380	1.50148	6.91E-05
1.385	1.50164	6.80E-05
1.390	1.50141	6.70E-05
1.395	1.50070	6.62E-05
1.400	1.50117	6.50E-05
1.405	1.50070	6.42E-05
1.410	1.50164	6.34E-05
1.415	1.50078	6.21E-05
1.420	1.50055	6.15E-05
1.425	1.50023	6.06E-05
1.430	1.50086	5.97E-05
1.435	1.50109	5.88E-05
1.440	1.49992	5.80E-05
1.445	1.49977	5.71E-05
1.450	1.50148	5.62E-05
1.455	1.50086	5.57E-05
1.460	1.50094	5.45E-05
1.465	1.49914	5.39E-05
1.470	1.50117	5.30E-05
1.475	1.50031	5.25E-05
1.480	1.50070	5.15E-05
1.485	1.49961	5.08E-05
1.490	1.50000	5.00E-05
1.495	1.49945	4.94E-05
1.500	1.49945	4.87E-05
1.505	1.50039	4.78E-05
1.510	1.49914	4.73E-05
1.515	1.49906	4.64E-05
1.520	1.50039	4.55E-05
1.525	1.49930	4.52E-05
1.530	1.49883	4.44E-05
1.535	1.50039	4.36E-05
1.540	1.49922	4.32E-05
1.545	1.49789	4.24E-05
1.550	1.49961	4.19E-05
1.555	1.49891	4.12E-05
1.560	1.49797	4.08E-05
1.565	1.49977	4.00E-05
1.570	1.50031	3.95E-05
1.575	1.49820	3.90E-05
1.580	1.50016	3.82E-05
1.585	1.49883	3.78E-05
1.590	1.50055	3.73E-05
1.595	1.49930	3.68E-05
1.600	1.49945	3.62E-05
1.605	1.49922	3.57E-05
1.610	1.49844	3.51E-05
1.615	1.49953	3.47E-05
1.620	1.49836	3.43E-05
1.625	1.49898	3.35E-05
1.630	1.49773	3.34E-05
1.635	1.49844	3.28E-05
1.640	1.49726	3.25E-05
1.645	1.49961	3.18E-05
1.650	1.49789	3.15E-05
1.655	1.49805	3.09E-05
1.660	1.49789	3.06E-05
1.665	1.49883	3.01E-05
1.670	1.49734	2.99E-05
1.675	1.49758	2.94E-05
1.680	1.49773	2.90E-05
1.685	1.49570	2.88E-05
1.690	1.49742	2.82E-05
1.695	1.49656	2.80E-05
1.700	1.49640	2.75E-05
1.705	1.49789	2.72E-05
1.710	1.49758	2.67E-05
1.715	1.49781	2.65E-05
1.720	1.49758	2.60E-05
1.725	1.49624	2.57E-05
1.730	1.49695	2.54E-05
1.735	1.49734	2.51E-05
1.740	1.49679	2.47E-05
1.745	1.49609	2.46E-05
1.750	1.49711	2.41E-05
1.755	1.49805	2.37E-05
1.760	1.49632	2.37E-05
1.765	1.49812	2.32E-05
1.770	1.49577	2.31E-05
1.775	1.49585	2.29E-05
1.780	1.49750	2.24E-05
1.785	1.49601	2.21E-05
1.790	1.49687	2.19E-05
1.795	1.49812	2.13E-05
1.800	1.49444	2.15E-05
1.805	1.49554	2.12E-05
1.810	1.49617	2.07E-05
1.815	1.49507	2.07E-05
1.820	1.49554	2.05E-05
1.825	1.49687	2.02E-05
1.830	1.49648	1.98E-05
1.835	1.49640	1.98E-05
1.840	1.49632	1.96E-05
1.845	1.49491	1.94E-05
1.850	1.49507	1.92E-05
1.855	1.49366	1.94E-05
1.860	1.49491	1.88E-05
1.865	1.49483	1.86E-05
1.870	1.49624	1.83E-05
1.875	1.49373	1.84E-05
1.880	1.49523	1.79E-05
1.885	1.49436	1.78E-05
1.890	1.49358	1.77E-05
1.895	1.49366	1.73E-05
1.900	1.49027	1.75E-05
1.905	1.48917	1.75E-05
1.910	1.49617	1.68E-05
1.915	1.49130	1.69E-05
1.920	1.49460	1.65E-05
1.925	1.49067	1.66E-05
1.930	1.48830	1.67E-05
1.935	1.49059	1.62E-05
1.940	1.49577	1.56E-05
1.945	1.48996	1.59E-05
1.950	1.48949	1.58E-05
1.955	1.49421	1.53E-05
1.960	1.49671	1.50E-05
1.965	1.49138	1.51E-05
1.970	1.48886	1.53E-05
1.975	1.49358	1.47E-05
1.980	1.48767	1.49E-05
1.985	1.49106	1.48E-05
1.990	1.48957	1.46E-05
1.995	1.49216	1.42E-05
2.000	1.49012	1.44E-05
