Material: isuzu / filter / IVG550
Optical constants. Data kindly provided by Koichiro Ikeda, ISUZU GLASS LTD. Nov 2024. See also Isuzu Glass Products
Comments: Green filter (IVG series).
wavelength (um)	n	k
0.200	1.64359	2.34E-04
0.205	1.63972	2.71E-04
0.210	1.61689	2.80E-04
0.215	1.61201	3.89E-04
0.220	1.60494	3.25E-04
0.225	1.60348	3.37E-04
0.230	1.59579	3.45E-04
0.235	1.59189	3.52E-04
0.240	1.58659	3.55E-04
0.245	1.58290	3.81E-04
0.250	1.58135	3.97E-04
0.255	1.57750	4.33E-04
0.260	1.57364	4.13E-04
0.265	1.57014	4.50E-04
0.270	1.56731	4.41E-04
0.275	1.56657	4.50E-04
0.280	1.56268	4.76E-04
0.285	1.55879	4.84E-04
0.290	1.55834	5.25E-04
0.295	1.55541	5.01E-04
0.300	1.55526	5.10E-04
0.305	1.55301	5.18E-04
0.310	1.55075	5.27E-04
0.315	1.54803	5.36E-04
0.320	1.54668	5.23E-04
0.325	1.54811	5.05E-04
0.330	1.54720	4.89E-04
0.335	1.54448	4.66E-04
0.340	1.54584	4.27E-04
0.345	1.54683	4.00E-04
0.350	1.54539	3.72E-04
0.355	1.54320	3.46E-04
0.360	1.54335	3.21E-04
0.365	1.54214	2.96E-04
0.370	1.54183	2.72E-04
0.375	1.54108	2.49E-04
0.380	1.53948	2.27E-04
0.385	1.53812	2.07E-04
0.390	1.53781	1.87E-04
0.395	1.53690	1.70E-04
0.400	1.53606	1.54E-04
0.405	1.53462	1.41E-04
0.410	1.53515	1.30E-04
0.415	1.53393	1.20E-04
0.420	1.53340	1.12E-04
0.425	1.53233	1.04E-04
0.430	1.53195	9.76E-05
0.435	1.53149	9.07E-05
0.440	1.53073	8.34E-05
0.445	1.53073	7.58E-05
0.450	1.52997	6.81E-05
0.455	1.52958	6.03E-05
0.460	1.52897	5.27E-05
0.465	1.52897	4.57E-05
0.470	1.52867	3.93E-05
0.475	1.52760	3.40E-05
0.480	1.52729	2.94E-05
0.485	1.52637	2.56E-05
0.490	1.52606	2.27E-05
0.495	1.52561	2.03E-05
0.500	1.52522	1.84E-05
0.505	1.52484	1.69E-05
0.510	1.52476	1.57E-05
0.515	1.52399	1.47E-05
0.520	1.52407	1.39E-05
0.525	1.52346	1.33E-05
0.530	1.52338	1.28E-05
0.535	1.52330	1.25E-05
0.540	1.52277	1.24E-05
0.545	1.52238	1.24E-05
0.550	1.52231	1.26E-05
0.555	1.52192	1.29E-05
0.560	1.52185	1.35E-05
0.565	1.52131	1.42E-05
0.570	1.52146	1.51E-05
0.575	1.52123	1.63E-05
0.580	1.52085	1.78E-05
0.585	1.52077	1.94E-05
0.590	1.52046	2.14E-05
0.595	1.52023	2.36E-05
0.600	1.52008	2.61E-05
0.605	1.51977	2.88E-05
0.610	1.51985	3.17E-05
0.615	1.51938	3.49E-05
0.620	1.51923	3.81E-05
0.625	1.51908	4.14E-05
0.630	1.51900	4.49E-05
0.635	1.51892	4.84E-05
0.640	1.51831	5.21E-05
0.645	1.51846	5.57E-05
0.650	1.51831	5.94E-05
0.655	1.51815	6.32E-05
0.660	1.51769	6.70E-05
0.665	1.51715	7.09E-05
0.670	1.51622	7.48E-05
0.675	1.51576	7.87E-05
0.680	1.51576	8.26E-05
0.685	1.51584	8.66E-05
0.690	1.51561	9.03E-05
0.695	1.51553	9.42E-05
0.700	1.51607	9.80E-05
0.705	1.51530	1.02E-04
0.710	1.51553	1.05E-04
0.715	1.51538	1.09E-04
0.720	1.51545	1.13E-04
0.725	1.51545	1.16E-04
0.730	1.51514	1.20E-04
0.735	1.51538	1.24E-04
0.740	1.51514	1.28E-04
0.745	1.51522	1.32E-04
0.750	1.51530	1.35E-04
0.755	1.51476	1.39E-04
0.760	1.51514	1.43E-04
0.765	1.51484	1.47E-04
0.770	1.51460	1.50E-04
0.775	1.51538	1.54E-04
0.780	1.51507	1.57E-04
0.785	1.51484	1.60E-04
0.790	1.51468	1.64E-04
0.795	1.51406	1.67E-04
0.800	1.51437	1.70E-04
0.805	1.51460	1.73E-04
0.810	1.51445	1.75E-04
0.815	1.51437	1.77E-04
0.820	1.51429	1.80E-04
0.825	1.51429	1.82E-04
0.830	1.51383	1.84E-04
0.835	1.51321	1.86E-04
0.840	1.51375	1.87E-04
0.845	1.51321	1.88E-04
0.850	1.50297	1.89E-04
0.855	1.49373	1.90E-04
0.860	1.49554	1.91E-04
0.865	1.49554	1.90E-04
0.870	1.49742	1.91E-04
0.875	1.49601	1.91E-04
0.880	1.49421	1.91E-04
0.885	1.49546	1.91E-04
0.890	1.49984	1.90E-04
0.895	1.49554	1.90E-04
0.900	1.49554	1.89E-04
0.905	1.49711	1.88E-04
0.910	1.49609	1.86E-04
0.915	1.49617	1.85E-04
0.920	1.50117	1.83E-04
0.925	1.49875	1.82E-04
0.930	1.49875	1.80E-04
0.935	1.49577	1.79E-04
0.940	1.49687	1.77E-04
0.945	1.49977	1.75E-04
0.950	1.49875	1.73E-04
0.955	1.49609	1.71E-04
0.960	1.49930	1.69E-04
0.965	1.49789	1.67E-04
0.970	1.49679	1.65E-04
0.975	1.50094	1.63E-04
0.980	1.49805	1.61E-04
0.985	1.49961	1.59E-04
0.990	1.49758	1.57E-04
0.995	1.49922	1.55E-04
1.000	1.49687	1.53E-04
1.005	1.49687	1.51E-04
1.010	1.49977	1.49E-04
1.015	1.49758	1.47E-04
1.020	1.49624	1.45E-04
1.025	1.49891	1.43E-04
1.030	1.49953	1.41E-04
1.035	1.49883	1.39E-04
1.040	1.49687	1.38E-04
1.045	1.49656	1.36E-04
1.050	1.49585	1.35E-04
1.055	1.49898	1.33E-04
1.060	1.49601	1.31E-04
1.065	1.49969	1.30E-04
1.070	1.49679	1.28E-04
1.075	1.50102	1.27E-04
1.080	1.49750	1.25E-04
1.085	1.49781	1.24E-04
1.090	1.49601	1.23E-04
1.095	1.49812	1.21E-04
1.100	1.49773	1.20E-04
1.105	1.49765	1.19E-04
1.110	1.49711	1.17E-04
1.115	1.49844	1.16E-04
1.120	1.49758	1.15E-04
1.125	1.49984	1.14E-04
1.130	1.49891	1.12E-04
1.135	1.49711	1.11E-04
1.140	1.49460	1.10E-04
1.145	1.49867	1.09E-04
1.150	1.49617	1.08E-04
1.155	1.49624	1.07E-04
1.160	1.49538	1.06E-04
1.165	1.49664	1.05E-04
1.170	1.49546	1.04E-04
1.175	1.49530	1.03E-04
1.180	1.49624	1.01E-04
1.185	1.49523	1.00E-04
1.190	1.49664	9.95E-05
1.195	1.49624	9.85E-05
1.200	1.49820	9.73E-05
1.205	1.49444	9.67E-05
1.210	1.49750	9.54E-05
1.215	1.49318	9.46E-05
1.220	1.49562	9.37E-05
1.225	1.49381	9.27E-05
1.230	1.49389	9.19E-05
1.235	1.49475	9.07E-05
1.240	1.49397	8.99E-05
1.245	1.49436	8.90E-05
1.250	1.49538	8.81E-05
1.255	1.49468	8.72E-05
1.260	1.49468	8.63E-05
1.265	1.49350	8.54E-05
1.270	1.49523	8.45E-05
1.275	1.49475	8.36E-05
1.280	1.49366	8.28E-05
1.285	1.49632	8.18E-05
1.290	1.49405	8.10E-05
1.295	1.49577	8.01E-05
1.300	1.49326	7.95E-05
1.305	1.49452	7.85E-05
1.310	1.49585	7.76E-05
1.315	1.49405	7.69E-05
1.320	1.49334	7.61E-05
1.325	1.49452	7.52E-05
1.330	1.49358	7.45E-05
1.335	1.49499	7.37E-05
1.340	1.49671	7.25E-05
1.345	1.49687	7.20E-05
1.350	1.49601	7.11E-05
1.355	1.49334	7.08E-05
1.360	1.49452	6.99E-05
1.365	1.49295	6.93E-05
1.370	1.49201	6.84E-05
1.375	1.49405	6.78E-05
1.380	1.49358	6.70E-05
1.385	1.48996	6.64E-05
1.390	1.49311	6.55E-05
1.395	1.49366	6.49E-05
1.400	1.49106	6.41E-05
1.405	1.49193	6.35E-05
1.410	1.49373	6.31E-05
1.415	1.49295	6.18E-05
1.420	1.49444	6.15E-05
1.425	1.49436	6.10E-05
1.430	1.49318	6.02E-05
1.435	1.49342	5.98E-05
1.440	1.49389	5.89E-05
1.445	1.49248	5.84E-05
1.450	1.49483	5.78E-05
1.455	1.49452	5.74E-05
1.460	1.49295	5.64E-05
1.465	1.49161	5.59E-05
1.470	1.49090	5.53E-05
1.475	1.49318	5.49E-05
1.480	1.49208	5.42E-05
1.485	1.49295	5.34E-05
1.490	1.49224	5.31E-05
1.495	1.49232	5.24E-05
1.500	1.49216	5.20E-05
1.505	1.49122	5.13E-05
1.510	1.49256	5.08E-05
1.515	1.49271	5.00E-05
1.520	1.49397	4.97E-05
1.525	1.49051	4.93E-05
1.530	1.49193	4.86E-05
1.535	1.49248	4.80E-05
1.540	1.49318	4.77E-05
1.545	1.49169	4.71E-05
1.550	1.49193	4.69E-05
1.555	1.49279	4.61E-05
1.560	1.49161	4.60E-05
1.565	1.49185	4.52E-05
1.570	1.49051	4.52E-05
1.575	1.49271	4.46E-05
1.580	1.48957	4.43E-05
1.585	1.49153	4.40E-05
1.590	1.49090	4.36E-05
1.595	1.49027	4.32E-05
1.600	1.49114	4.28E-05
1.605	1.48996	4.25E-05
1.610	1.48917	4.20E-05
1.615	1.49201	4.19E-05
1.620	1.49027	4.15E-05
1.625	1.49035	4.11E-05
1.630	1.49059	4.09E-05
1.635	1.49075	4.04E-05
1.640	1.49169	4.03E-05
1.645	1.49075	3.99E-05
1.650	1.49027	3.96E-05
1.655	1.48972	3.94E-05
1.660	1.48972	3.92E-05
1.665	1.49098	3.91E-05
1.670	1.48807	3.89E-05
1.675	1.48878	3.86E-05
1.680	1.48980	3.84E-05
1.685	1.49027	3.82E-05
1.690	1.48720	3.81E-05
1.695	1.49043	3.77E-05
1.700	1.49027	3.75E-05
1.705	1.48846	3.75E-05
1.710	1.48680	3.75E-05
1.715	1.48862	3.71E-05
1.720	1.48641	3.70E-05
1.725	1.48688	3.71E-05
1.730	1.48972	3.67E-05
1.735	1.48838	3.67E-05
1.740	1.48799	3.66E-05
1.745	1.49020	3.62E-05
1.750	1.48538	3.66E-05
1.755	1.48688	3.61E-05
1.760	1.48704	3.64E-05
1.765	1.48862	3.61E-05
1.770	1.48601	3.61E-05
1.775	1.48744	3.60E-05
1.780	1.48783	3.58E-05
1.785	1.48759	3.56E-05
1.790	1.48673	3.58E-05
1.795	1.48815	3.54E-05
1.800	1.48815	3.54E-05
1.805	1.48483	3.57E-05
1.810	1.48601	3.54E-05
1.815	1.48625	3.55E-05
1.820	1.48791	3.52E-05
1.825	1.48609	3.56E-05
1.830	1.48680	3.50E-05
1.835	1.48751	3.55E-05
1.840	1.48530	3.54E-05
1.845	1.48570	3.55E-05
1.850	1.48759	3.50E-05
1.855	1.48594	3.54E-05
1.860	1.48838	3.50E-05
1.865	1.48578	3.51E-05
1.870	1.48467	3.53E-05
1.875	1.48570	3.52E-05
1.880	1.48514	3.51E-05
1.885	1.48522	3.48E-05
1.890	1.48617	3.48E-05
1.895	1.48586	3.46E-05
1.900	1.48578	3.48E-05
1.905	1.48578	3.49E-05
1.910	1.48530	3.49E-05
1.915	1.48562	3.46E-05
1.920	1.48728	3.45E-05
1.925	1.48657	3.44E-05
1.930	1.48530	3.47E-05
1.935	1.48720	3.42E-05
1.940	1.48673	3.40E-05
1.945	1.48759	3.40E-05
1.950	1.48364	3.43E-05
1.955	1.48594	3.39E-05
1.960	1.48665	3.40E-05
1.965	1.48728	3.38E-05
1.970	1.48720	3.38E-05
1.975	1.48680	3.36E-05
1.980	1.48657	3.35E-05
1.985	1.48673	3.37E-05
1.990	1.48736	3.36E-05
1.995	1.48665	3.33E-05
2.000	1.48633	3.35E-05
