Material: mixed crystals / LaAlO3-Sr2TaAlO6 / Chernova
Optical constants. E. Chernova, C. Brooks, D. Chvostova, Z. Bryknar, A. Dejneka, M. Tyunina. Optical NIR-VIS-VUV constants of advanced substrates for thin-film devices. Opt. Mater. Express 7, 3844â€“3862 (2017) [Calculation script (Python)]
Comments: (LaAlO33)0.3(Sr2TaAlO6)0.7
wavelength (um)	n	k
1.4089e-01	2.6238e+00	8.4982e-01
1.4221e-01	2.6333e+00	8.2971e-01
1.4355e-01	2.6412e+00	8.0636e-01
1.4491e-01	2.6469e+00	7.7993e-01
1.4631e-01	2.6498e+00	7.5062e-01
1.4772e-01	2.6491e+00	7.1900e-01
1.4917e-01	2.6436e+00	6.8570e-01
1.5065e-01	2.6328e+00	6.5152e-01
1.5215e-01	2.6161e+00	6.1752e-01
1.5369e-01	2.5927e+00	5.8519e-01
1.5525e-01	2.5621e+00	5.5640e-01
1.5685e-01	2.5245e+00	5.3337e-01
1.5849e-01	2.4807e+00	5.1882e-01
1.6015e-01	2.4324e+00	5.1575e-01
1.6185e-01	2.3828e+00	5.2672e-01
1.6359e-01	2.3371e+00	5.5339e-01
1.6537e-01	2.3010e+00	5.9514e-01
1.6719e-01	2.2804e+00	6.4879e-01
1.6904e-01	2.2794e+00	7.0792e-01
1.7094e-01	2.2994e+00	7.6471e-01
1.7288e-01	2.3367e+00	8.1215e-01
1.7486e-01	2.3859e+00	8.4560e-01
1.7690e-01	2.4408e+00	8.6382e-01
1.7897e-01	2.4958e+00	8.6852e-01
1.8110e-01	2.5476e+00	8.6339e-01
1.8328e-01	2.5958e+00	8.5237e-01
1.8552e-01	2.6425e+00	8.3799e-01
1.8780e-01	2.6905e+00	8.2050e-01
1.9015e-01	2.7418e+00	7.9757e-01
1.9255e-01	2.7965e+00	7.6532e-01
1.9502e-01	2.8518e+00	7.1982e-01
1.9755e-01	2.9024e+00	6.5951e-01
2.0014e-01	2.9423e+00	5.8523e-01
2.0281e-01	2.9667e+00	5.0082e-01
2.0555e-01	2.9728e+00	4.1188e-01
2.0836e-01	2.9600e+00	3.2473e-01
2.1125e-01	2.9305e+00	2.4502e-01
2.1422e-01	2.8885e+00	1.7686e-01
2.1728e-01	2.8389e+00	1.2227e-01
2.2042e-01	2.7861e+00	8.1399e-02
2.2366e-01	2.7341e+00	5.2615e-02
2.2699e-01	2.6859e+00	3.3649e-02
2.3043e-01	2.6424e+00	2.1755e-02
2.3397e-01	2.6038e+00	1.4670e-02
2.3762e-01	2.5701e+00	1.0520e-02
2.4139e-01	2.5405e+00	8.0810e-03
2.4527e-01	2.5143e+00	6.5671e-03
2.4929e-01	2.4907e+00	5.5419e-03
2.5344e-01	2.4694e+00	4.7744e-03
2.5773e-01	2.4499e+00	4.1519e-03
2.6216e-01	2.4319e+00	3.6228e-03
2.6675e-01	2.4151e+00	3.1614e-03
2.7151e-01	2.3996e+00	2.7557e-03
2.7644e-01	2.3850e+00	2.3976e-03
2.8155e-01	2.3712e+00	2.0825e-03
2.8685e-01	2.3582e+00	1.8051e-03
2.9236e-01	2.3461e+00	1.5616e-03
2.9808e-01	2.3345e+00	1.3483e-03
3.0403e-01	2.3234e+00	1.1620e-03
3.1023e-01	2.3130e+00	9.9945e-04
3.1668e-01	2.3031e+00	8.5797e-04
3.2340e-01	2.2937e+00	7.3519e-04
3.3042e-01	2.2846e+00	6.2878e-04
3.3775e-01	2.2760e+00	5.3678e-04
3.4541e-01	2.2679e+00	4.5732e-04
3.5342e-01	2.2600e+00	3.8900e-04
3.6182e-01	2.2524e+00	3.3022e-04
3.7063e-01	2.2454e+00	2.7984e-04
3.7987e-01	2.2385e+00	2.3668e-04
3.8959e-01	2.2319e+00	1.9985e-04
3.9982e-01	2.2256e+00	1.6842e-04
4.1060e-01	2.2197e+00	1.4168e-04
4.2198e-01	2.2139e+00	1.1897e-04
4.3400e-01	2.2083e+00	9.9723e-05
4.4673e-01	2.2031e+00	8.3441e-05
4.6023e-01	2.1981e+00	6.9680e-05
4.7458e-01	2.1932e+00	5.8099e-05
4.8984e-01	2.1885e+00	4.8346e-05
5.0612e-01	2.1842e+00	4.0166e-05
5.2352e-01	2.1801e+00	3.3303e-05
5.4216e-01	2.1759e+00	2.7570e-05
5.6217e-01	2.1720e+00	2.2780e-05
5.8372e-01	2.1685e+00	1.8789e-05
6.0698e-01	2.1650e+00	1.5470e-05
6.3218e-01	2.1616e+00	1.2715e-05
6.5956e-01	2.1584e+00	1.0432e-05
6.8942e-01	2.1555e+00	8.5427e-06
7.2211e-01	2.1526e+00	6.9846e-06
7.5806e-01	2.1498e+00	5.6994e-06
7.9777e-01	2.1474e+00	4.6433e-06
8.4187e-01	2.1450e+00	3.7751e-06
8.9113e-01	2.1427e+00	3.0648e-06
9.4652e-01	2.1405e+00	2.4829e-06
1.0092e+00	2.1386e+00	2.0080e-06
1.0809e+00	2.1368e+00	1.6206e-06
1.1635e+00	2.1350e+00	1.3055e-06
1.2597e+00	2.1335e+00	1.0493e-06
1.3733e+00	2.1321e+00	8.4113e-07
1.5094e+00	2.1308e+00	6.7245e-07
1.6755e+00	2.1295e+00	5.3554e-07
