Material: perovskite / CsPbBr3 / Brennan
Optical constants. M. C. Brennan, D. M. Krein, E. Rowe, C. L. McCleese, L. Sun, K. G. Berry, P. R. Stevenson, M. A. Susner, T. A. Grusenmeyer. Fundamental optical constants and anti-reflection coating of melt-grown, polished CsPbBr3. MRS Commun. ASAP (2024) (See Supplementary Information)
Comments: Likely crystal orientation: ; Bridgman-grown, polished crystal; Room temperature.
wavelength (um)	n	k
0.200	1.173075	0.10725
0.206	1.315892	0.14256
0.212	1.367822	0.14540
0.218	1.387214	0.14597
0.224	1.375853	0.15016
0.230	1.342469	0.17250
0.236	1.300162	0.22133
0.242	1.263622	0.29814
0.248	1.245872	0.39748
0.254	1.251360	0.51060
0.260	1.287287	0.63959
0.266	1.380078	0.76704
0.272	1.517403	0.84482
0.278	1.652950	0.86602
0.284	1.767725	0.85805
0.290	1.868894	0.83573
0.296	1.960952	0.79548
0.302	2.034221	0.73391
0.308	2.073780	0.66404
0.314	2.084018	0.60824
0.320	2.084555	0.57900
0.326	2.095528	0.56601
0.332	2.118766	0.55423
0.338	2.147448	0.53491
0.344	2.174140	0.50881
0.350	2.196591	0.47851
0.356	2.213976	0.44578
0.362	2.225945	0.41216
0.368	2.232638	0.37895
0.374	2.234380	0.34719
0.380	2.231362	0.31784
0.386	2.224144	0.29252
0.392	2.214405	0.27274
0.398	2.205207	0.25963
0.404	2.204989	0.24832
0.410	2.197037	0.23377
0.416	2.192139	0.22173
0.422	2.186505	0.21059
0.428	2.180911	0.20119
0.434	2.175076	0.19357
0.440	2.169468	0.18699
0.446	2.165159	0.18132
0.452	2.160258	0.17702
0.458	2.156080	0.17350
0.464	2.152869	0.17109
0.470	2.150184	0.16939
0.476	2.148000	0.16843
0.482	2.145987	0.16848
0.488	2.144811	0.17049
0.494	2.143549	0.17476
0.500	2.143653	0.18239
0.506	2.145663	0.20428
0.512	2.168386	0.24259
0.518	2.282883	0.27273
0.524	2.367797	0.14258
0.530	2.317626	0.03188
0.536	2.253666	0.00552
0.542	2.216782	7.96E-04
0.548	2.192672	1.29E-04
0.554	2.175255	3.10E-05
0.560	2.161559	1.10E-05
0.566	2.150267	7.00E-06
0.572	2.140663	6.00E-06
0.578	2.132315	6.00E-06
0.584	2.124942	5.00E-06
0.590	2.118347	5.00E-06
0.596	2.112391	5.00E-06
0.602	2.106967	5.00E-06
0.608	2.101995	5.00E-06
0.614	2.097413	5.00E-06
0.620	2.093168	4.00E-06
0.626	2.089219	4.00E-06
0.632	2.085533	4.00E-06
0.638	2.082080	4.00E-06
0.644	2.078838	4.00E-06
0.650	2.075784	4.00E-06
0.656	2.072902	4.00E-06
0.662	2.070175	4.00E-06
0.668	2.067592	4.00E-06
0.674	2.065139	4.00E-06
0.680	2.062807	4.00E-06
0.686	2.060586	4.00E-06
0.692	2.058468	3.00E-06
0.698	2.056446	3.00E-06
0.704	2.054513	3.00E-06
0.710	2.052662	3.00E-06
0.716	2.050890	3.00E-06
0.722	2.049190	3.00E-06
0.728	2.047558	3.00E-06
0.734	2.045990	3.00E-06
0.740	2.044482	3.00E-06
0.746	2.043032	3.00E-06
0.752	2.041635	3.00E-06
0.758	2.040288	3.00E-06
0.764	2.038990	3.00E-06
0.770	2.037737	3.00E-06
0.776	2.036527	3.00E-06
0.782	2.035358	3.00E-06
0.788	2.034228	3.00E-06
0.794	2.033134	3.00E-06
0.800	2.032076	3.00E-06
0.806	2.031052	3.00E-06
0.812	2.030060	3.00E-06
0.818	2.029098	3.00E-06
0.824	2.028165	3.00E-06
0.830	2.027261	3.00E-06
0.836	2.026383	3.00E-06
0.842	2.025530	3.00E-06
0.848	2.024703	3.00E-06
0.854	2.023898	3.00E-06
0.860	2.023117	3.00E-06
0.866	2.022357	3.00E-06
0.872	2.021617	3.00E-06
0.878	2.020898	3.00E-06
0.884	2.020198	3.00E-06
0.890	2.019516	3.00E-06
0.896	2.018852	3.00E-06
0.902	2.018206	3.00E-06
0.908	2.017575	3.00E-06
0.914	2.016961	3.00E-06
0.920	2.016362	3.00E-06
0.926	2.015778	3.00E-06
0.932	2.015208	3.00E-06
0.938	2.014652	3.00E-06
0.944	2.014109	3.00E-06
0.950	2.013579	3.00E-06
0.956	2.013062	3.00E-06
0.962	2.012556	3.00E-06
0.968	2.012062	3.00E-06
0.974	2.011580	3.00E-06
0.980	2.011108	3.00E-06
0.986	2.010647	3.00E-06
0.992	2.010196	3.00E-06
0.998	2.009755	3.00E-06
1.004	2.009324	3.00E-06
1.010	2.008902	3.00E-06
1.016	2.008489	3.00E-06
1.022	2.008085	3.00E-06
1.028	2.007689	3.00E-06
1.034	2.007301	3.00E-06
1.040	2.006922	3.00E-06
1.046	2.006550	3.00E-06
1.052	2.006186	3.00E-06
1.058	2.005829	3.00E-06
1.064	2.005480	3.00E-06
1.070	2.005137	3.00E-06
1.076	2.004801	3.00E-06
1.082	2.004472	3.00E-06
1.088	2.004149	3.00E-06
1.094	2.003832	3.00E-06
1.100	2.003522	3.00E-06
1.106	2.003217	3.00E-06
1.112	2.002918	3.00E-06
1.118	2.002625	3.00E-06
1.124	2.002337	3.00E-06
1.130	2.002054	3.00E-06
1.136	2.001776	3.00E-06
1.142	2.001504	3.00E-06
1.148	2.001237	3.00E-06
1.154	2.000974	3.00E-06
1.160	2.000716	3.00E-06
1.166	2.000463	3.00E-06
1.172	2.000214	3.00E-06
1.178	1.999969	3.00E-06
1.184	1.999729	3.00E-06
1.190	1.999492	3.00E-06
1.196	1.999260	3.00E-06
1.202	1.999032	3.00E-06
1.208	1.998808	3.00E-06
1.214	1.998587	3.00E-06
1.220	1.998370	3.00E-06
1.226	1.998157	3.00E-06
1.232	1.997947	3.00E-06
1.238	1.997741	3.00E-06
1.244	1.997537	3.00E-06
1.250	1.997338	3.00E-06
1.256	1.997141	3.00E-06
1.262	1.996948	3.00E-06
1.268	1.996758	3.00E-06
1.274	1.996570	3.00E-06
1.280	1.996386	3.00E-06
1.286	1.996204	3.00E-06
1.292	1.996026	3.00E-06
1.298	1.995850	3.00E-06
1.304	1.995677	3.00E-06
1.310	1.995506	3.00E-06
1.316	1.995338	3.00E-06
1.322	1.995173	3.00E-06
1.328	1.995010	3.00E-06
1.334	1.994849	3.00E-06
1.340	1.994691	3.00E-06
1.346	1.994535	3.00E-06
1.352	1.994382	3.00E-06
1.358	1.994230	3.00E-06
1.364	1.994081	3.00E-06
1.370	1.993934	3.00E-06
1.376	1.993789	3.00E-06
1.382	1.993647	3.00E-06
1.388	1.993506	3.00E-06
1.394	1.993367	3.00E-06
1.400	1.993230	3.00E-06
1.406	1.993095	3.00E-06
1.412	1.992962	3.00E-06
1.418	1.992831	3.00E-06
1.424	1.992702	3.00E-06
1.430	1.992574	3.00E-06
1.436	1.992448	3.00E-06
1.442	1.992324	3.00E-06
1.448	1.992202	3.00E-06
1.454	1.992081	3.00E-06
1.460	1.991962	3.00E-06
1.466	1.991844	3.00E-06
1.472	1.991728	3.00E-06
1.478	1.991614	3.00E-06
1.484	1.991500	3.00E-06
1.490	1.991389	3.00E-06
1.496	1.991279	3.00E-06
1.502	1.991170	3.00E-06
1.508	1.991063	3.00E-06
1.514	1.990957	3.00E-06
1.520	1.990852	3.00E-06
1.526	1.990749	3.00E-06
1.532	1.990647	3.00E-06
1.538	1.990547	3.00E-06
1.544	1.990447	3.00E-06
1.550	1.990349	3.00E-06
1.556	1.990252	3.00E-06
1.562	1.990156	3.00E-06
1.568	1.990062	3.00E-06
1.574	1.989969	3.00E-06
1.580	1.989876	3.00E-06
1.586	1.989785	3.00E-06
1.592	1.989695	3.00E-06
1.598	1.989606	3.00E-06
1.604	1.989518	3.00E-06
1.610	1.989432	3.00E-06
1.616	1.989346	3.00E-06
1.622	1.989261	3.00E-06
1.628	1.989177	3.00E-06
1.634	1.989094	3.00E-06
1.640	1.989013	3.00E-06
1.646	1.988932	3.00E-06
1.652	1.988852	3.00E-06
1.658	1.988773	3.00E-06
1.664	1.988695	3.00E-06
1.670	1.988617	3.00E-06
1.676	1.988541	3.00E-06
1.682	1.988466	3.00E-06
1.688	1.988391	3.00E-06
1.694	1.988317	3.00E-06
1.700	1.988244	3.00E-06
1.706	1.988172	3.00E-06
1.712	1.988101	3.00E-06
1.718	1.988030	3.00E-06
1.724	1.987961	3.00E-06
1.730	1.987892	3.00E-06
1.736	1.987823	3.00E-06
1.742	1.987756	3.00E-06
1.748	1.987689	3.00E-06
1.754	1.987623	3.00E-06
1.760	1.987558	3.00E-06
1.766	1.987494	3.00E-06
1.772	1.987430	3.00E-06
1.778	1.987366	3.00E-06
1.784	1.987304	3.00E-06
1.790	1.987242	3.00E-06
1.796	1.987181	3.00E-06
1.802	1.987120	3.00E-06
1.808	1.987060	3.00E-06
1.814	1.987001	3.00E-06
1.820	1.986942	3.00E-06
1.826	1.986884	3.00E-06
1.832	1.986827	3.00E-06
1.838	1.986770	3.00E-06
1.844	1.986714	3.00E-06
1.850	1.986658	3.00E-06
1.856	1.986603	3.00E-06
1.862	1.986548	3.00E-06
1.868	1.986494	3.00E-06
1.874	1.986441	3.00E-06
1.880	1.986388	3.00E-06
1.886	1.986335	3.00E-06
1.892	1.986283	3.00E-06
1.898	1.986232	3.00E-06
1.904	1.986181	3.00E-06
1.910	1.986131	3.00E-06
1.916	1.986081	3.00E-06
1.922	1.986032	3.00E-06
1.928	1.985983	3.00E-06
1.934	1.985934	3.00E-06
1.940	1.985886	3.00E-06
1.946	1.985839	3.00E-06
1.952	1.985792	3.00E-06
1.958	1.985745	3.00E-06
1.964	1.985699	3.00E-06
1.970	1.985654	3.00E-06
1.976	1.985608	3.00E-06
1.982	1.985564	3.00E-06
1.988	1.985519	3.00E-06
1.994	1.985475	3.00E-06
2.000	1.985432	3.00E-06
2.006	1.985389	3.00E-06
2.012	1.985346	3.00E-06
2.018	1.985303	3.00E-06
2.024	1.985261	3.00E-06
2.030	1.985220	3.00E-06
2.036	1.985179	3.00E-06
2.042	1.985138	3.00E-06
2.048	1.985098	3.00E-06
2.054	1.985057	3.00E-06
2.060	1.985018	3.00E-06
2.066	1.984978	3.00E-06
2.072	1.984939	3.00E-06
2.078	1.984901	3.00E-06
2.084	1.984863	3.00E-06
2.090	1.984825	3.00E-06
2.096	1.984787	3.00E-06
2.102	1.984750	3.00E-06
2.108	1.984713	3.00E-06
2.114	1.984676	3.00E-06
2.120	1.984640	3.00E-06
2.126	1.984604	3.00E-06
2.132	1.984568	3.00E-06
2.138	1.984533	3.00E-06
2.144	1.984498	3.00E-06
2.150	1.984463	3.00E-06
2.156	1.984429	3.00E-06
2.162	1.984395	3.00E-06
2.168	1.984361	3.00E-06
2.174	1.984328	3.00E-06
2.180	1.984294	3.00E-06
2.186	1.984261	3.00E-06
2.192	1.984229	3.00E-06
2.198	1.984196	3.00E-06
2.204	1.984164	3.00E-06
2.210	1.984132	3.00E-06
2.216	1.984101	3.00E-06
2.222	1.984069	3.00E-06
2.228	1.984038	3.00E-06
2.234	1.984008	3.00E-06
2.240	1.983977	3.00E-06
2.246	1.983947	3.00E-06
2.252	1.983917	3.00E-06
2.258	1.983887	3.00E-06
2.264	1.983857	3.00E-06
2.270	1.983828	3.00E-06
2.276	1.983799	3.00E-06
2.282	1.983770	3.00E-06
2.288	1.983742	3.00E-06
2.294	1.983713	3.00E-06
2.300	1.983685	3.00E-06
2.306	1.983657	3.00E-06
2.312	1.983630	3.00E-06
2.318	1.983602	3.00E-06
2.324	1.983575	3.00E-06
2.330	1.983548	3.00E-06
2.336	1.983521	3.00E-06
2.342	1.983494	3.00E-06
2.348	1.983468	3.00E-06
2.354	1.983442	3.00E-06
2.360	1.983416	3.00E-06
2.366	1.983390	3.00E-06
2.372	1.983365	3.00E-06
2.378	1.983339	3.00E-06
2.384	1.983314	3.00E-06
2.390	1.983289	3.00E-06
2.396	1.983264	3.00E-06
2.402	1.983240	3.00E-06
2.408	1.983215	3.00E-06
2.414	1.983191	3.00E-06
2.420	1.983167	3.00E-06
2.426	1.983143	3.00E-06
2.432	1.983120	3.00E-06
2.438	1.983096	3.00E-06
2.444	1.983073	3.00E-06
2.450	1.983050	3.00E-06
2.456	1.983027	3.00E-06
2.462	1.983004	3.00E-06
2.468	1.982981	3.00E-06
2.474	1.982959	3.00E-06
2.480	1.982937	3.00E-06
2.486	1.982914	3.00E-06
2.492	1.982893	3.00E-06
2.498	1.982871	3.00E-06
