Material: mixed gases / air / Geints
Optical constants. Yu. E. Geints, A. M. Kabanov, A. A. Zemlyanov, E. E. Bykova, O. A. Bukin, S. S. Golik. Kerr-driven nonlinear refractive index of air at 800 and 400 nm measured through femtosecond laser pulse filamentation. Appl. Phys. Lett. 99, 181114 (2011)
Comments: Analysis of plasma channel formed within the filamentation zone. 40 fs pulse.
Conditions: {"n2_method": "Filament", "pulse_duration": "40e-15"}
wavelength (um)	n	2
0.400	5.36e-23
0.800	3.01e-23
