Material: mixed gases / air / Nibbering
Optical constants. E. T. J. Nibbering, G. Grillon, M. A. Franco, B. S. Prade, A. Mysyrowicz. Determination of the inertial contribution to the nonlinear refractive index of air, N2, and O2 by use of unfocused high-intensity femtosecond laser pulses. J. Opt. Soc. Am. B 14, 650-660 (1997)
Comments: 120 fs at 800 nm. Spectral analysis of self-phase modulation.
Conditions: {"n2_method": "SSPM", "pulse_duration": "120e-15", "temperature": 293, "pressure": 101325}
wavelength (um)	n	2
0.8	4.0e-23
