Material: mixed gases / air / Pigeon
Optical constants. J. J. Pigeon, S. Ya. Tochitsky, E. C. Welch, C. Joshi. Measurements of the nonlinear refractive index of air, N2, and O2 at 10 Î¼m using four-wave mixing. Opt. Lett. 41, 3924-3927 (2016)
Comments: 200 ps at 10.6 nm. Four-wave mixing. Room temperature.
Conditions: {"n2_method": "FWM", "pulse_duration": "200e-12"}
wavelength (um)	n	2
10.6	5.0e-23
