Material: mixed gases / air / Polyanskiy
Optical constants. M. N. Polyanskiy, M. Babzien, I. V. Pogorelsky, R. Kupfer, K. L. Vodopyanov, M. A. Palmer. Single-shot measurement of the nonlinear refractive index of air at 9.2 µm with a picosecond terawatt CO2 laser. Opt. Lett. 46, 2067-2070 (2021)
Comments: 2 ps at 9.2 µm. Spatial profile analysis.
Conditions: {"n2_method": "SPA", "pulse_duration": "2e-12"}
wavelength (um)	n	2
9.2	3.0e-23
