Material: mixed gases / air / Shimoji
Optical constants. Y. Shimoji, A. T. Fay, R. S. F. Chang, N. Djeu. Direct measurement of the nonlinear refractive index of air. J. Opt. Soc. Am. 6, 1994-1998 (1989)
Comments: 300 ps at 308 nm. Spatial profile analysis.
Conditions: {"n2_method": "SPA", "pulse_duration": "300e-12", "temperature": "300 K"}
wavelength (um)	n	2
0.308	1.2e-22
