Material: mixed gases / air / Vlasov
Optical constants. D. V. Vlasov, R. A. Garaev, V. V. Korobkin, R. V. Serov. Measurement of nonlinear polarizability of air, Zh. Eksp. Teor. Fi. 76, 2039–2045 (1997)
Comments: 30 ns at 1.064 μm. Elliptical polarization rotation.
Conditions: {"n2_method": "EPR", "pulse_duration": "30e-9"}
wavelength (um)	n	2
1.064	1.05e-22
