Material: main / Si / Polyanskiy
Optical constants. M. N. Polyanskiy, I. V. Pogorelsky, M. Babzien, K. L. Vodopyanov, M. A. Palmer. Nonlinear refraction and absorption properties of optical materials for high-peak-power long-wave-infrared lasers. Opt. Mater. Express 14, 696â€“714 (2024)
Comments: 2 ps. Spatial profile analysis.
Conditions: {"n2_method": "SPA", "pulse_duration": "2e-12"}
wavelength (um)	n	2
9.2	1200e-20
