Material: mixed crystals / In2O3-SnO2 / Minenkov-wafer-bottom
Optical constants. A. Minenkov, S. Hollweger, J. Duchoslav, O. Erdene-Ochir, M. Weise, E. Ermilova, A. Hertwig, M. Schiek. Monitoring the electrochemical failure of indium tin oxide electrodes via operando ellipsometry. ACS Appl Mater Interfaces 16, 9517-9531 (2024) (Numerical data kindly provided by Manuela Schiek)
Comments: 88 nm thick sputter-coated, graded ITO layer on a SiO2-Si wafer. Bottom part of the layer.
Conditions: {"film_thickness": "88e-9", "substrate": "SiO2/Si"}
wavelength (um)	n	k
0.19146	2.10995	0.61575
0.19465	2.11713	0.64227
0.19784	2.13115	0.65696
0.20104	2.14795	0.66177
0.20423	2.16476	0.65882
0.20742	2.17982	0.65026
0.21062	2.19216	0.63809
0.21381	2.20142	0.62410
0.21701	2.20771	0.60986
0.22020	2.21155	0.59669
0.22340	2.21375	0.58558
0.22659	2.21542	0.57721
0.22979	2.21786	0.57183
0.23298	2.22245	0.56921
0.23618	2.23053	0.56856
0.23938	2.24315	0.56850
0.24257	2.26081	0.56717
0.24577	2.28319	0.56246
0.24897	2.30903	0.55241
0.25216	2.33627	0.53570
0.25536	2.36242	0.51201
0.25856	2.38512	0.48205
0.26176	2.40259	0.44741
0.26496	2.41392	0.41006
0.26815	2.41902	0.37197
0.27135	2.41843	0.33474
0.27455	2.41305	0.29953
0.27775	2.40389	0.26703
0.28095	2.39193	0.23754
0.28415	2.37802	0.21112
0.28735	2.36283	0.18766
0.29055	2.34691	0.16692
0.29375	2.33066	0.14866
0.29695	2.31438	0.13261
0.30015	2.29827	0.11850
0.30335	2.28248	0.10609
0.30655	2.26711	0.09518
0.30975	2.25220	0.08556
0.31295	2.23780	0.07706
0.31615	2.22391	0.06955
0.31935	2.21054	0.06289
0.32255	2.19767	0.05698
0.32576	2.18530	0.05173
0.32896	2.17339	0.04704
0.33216	2.16194	0.04285
0.33536	2.15092	0.03911
0.33856	2.14030	0.03576
0.34176	2.13007	0.03275
0.34497	2.12019	0.03004
0.34817	2.11066	0.02761
0.35137	2.10145	0.02542
0.35457	2.09253	0.02344
0.35777	2.08390	0.02166
0.36098	2.07553	0.02006
0.36418	2.06741	0.01861
0.36738	2.05953	0.01730
0.37058	2.05186	0.01613
0.37379	2.04440	0.01507
0.37699	2.03713	0.01411
0.38019	2.03004	0.01325
0.38339	2.02312	0.01249
0.38660	2.01637	0.01180
0.38980	2.00976	0.01119
0.39300	2.00330	0.01065
0.39621	1.99697	0.01017
0.39941	1.99076	0.00975
0.40261	1.98468	0.00938
0.40581	1.97871	0.00907
0.40902	1.97285	0.00880
0.41222	1.96708	0.00858
0.41542	1.96141	0.00840
0.41863	1.95584	0.00826
0.42183	1.95034	0.00816
0.42503	1.94493	0.00809
0.42823	1.93959	0.00805
0.43144	1.93433	0.00804
0.43464	1.92913	0.00806
0.43784	1.92401	0.00812
0.44105	1.91894	0.00819
0.44425	1.91393	0.00830
0.44745	1.90898	0.00842
0.45065	1.90409	0.00857
0.45386	1.89925	0.00874
0.45706	1.89447	0.00893
0.46026	1.88974	0.00914
0.46346	1.88507	0.00935
0.46667	1.88044	0.00957
0.46987	1.87585	0.00979
0.47307	1.87129	0.01002
0.47627	1.86677	0.01025
0.47947	1.86227	0.01048
0.48267	1.85780	0.01071
0.48588	1.85336	0.01095
0.48908	1.84893	0.01120
0.49228	1.84452	0.01144
0.49548	1.84013	0.01170
0.49868	1.83576	0.01195
0.50188	1.83140	0.01221
0.50508	1.82705	0.01248
0.50828	1.82271	0.01274
0.51149	1.81838	0.01302
0.51469	1.81406	0.01329
0.51789	1.80974	0.01357
0.52109	1.80543	0.01386
0.52429	1.80113	0.01415
0.52749	1.79683	0.01444
0.53069	1.79252	0.01474
0.53389	1.78822	0.01505
0.53709	1.78392	0.01535
0.54028	1.77962	0.01567
0.54348	1.77532	0.01598
0.54668	1.77101	0.01631
0.54988	1.76670	0.01664
0.55308	1.76238	0.01697
0.55628	1.75806	0.01731
0.55948	1.75373	0.01765
0.56267	1.74940	0.01800
0.56587	1.74505	0.01835
0.56907	1.74070	0.01871
0.57227	1.73634	0.01907
0.57546	1.73197	0.01944
0.57866	1.72759	0.01982
0.58186	1.72320	0.02020
0.58505	1.71880	0.02058
0.58825	1.71438	0.02098
0.59144	1.70995	0.02138
0.59464	1.70551	0.02178
0.59783	1.70105	0.02219
0.60103	1.69658	0.02260
0.60422	1.69210	0.02303
0.60742	1.68760	0.02346
0.61061	1.68308	0.02389
0.61381	1.67855	0.02433
0.61700	1.67399	0.02478
0.62019	1.66943	0.02523
0.62339	1.66484	0.02569
0.62658	1.66023	0.02616
0.62977	1.65561	0.02664
0.63296	1.65097	0.02712
0.63616	1.64630	0.02761
0.63935	1.64162	0.02811
0.64254	1.63691	0.02861
0.64573	1.63219	0.02912
0.64892	1.62744	0.02964
0.65211	1.62267	0.03016
0.65530	1.61788	0.03070
0.65849	1.61306	0.03124
0.66168	1.60822	0.03179
0.66487	1.60336	0.03235
0.66805	1.59847	0.03291
0.67124	1.59356	0.03349
0.67443	1.58862	0.03407
0.67762	1.58366	0.03466
0.68080	1.57867	0.03526
0.68399	1.57365	0.03587
0.68718	1.56861	0.03649
0.69036	1.56354	0.03712
0.69355	1.55844	0.03776
0.69673	1.55331	0.03841
0.69992	1.54816	0.03906
0.70310	1.54298	0.03973
0.70628	1.53776	0.04041
0.70947	1.53252	0.04109
0.71265	1.52725	0.04179
0.71583	1.52195	0.04250
0.71902	1.51661	0.04322
0.72220	1.51124	0.04394
0.72538	1.50585	0.04469
0.72856	1.50041	0.04544
0.73174	1.49495	0.04620
0.73492	1.48945	0.04698
0.73810	1.48392	0.04776
0.74128	1.47836	0.04856
0.74446	1.47276	0.04937
0.74763	1.46712	0.05020
0.75081	1.46145	0.05103
0.75399	1.45574	0.05189
0.75716	1.45000	0.05275
0.76034	1.44422	0.05363
0.76352	1.43840	0.05452
0.76669	1.43254	0.05542
0.76987	1.42664	0.05634
0.77304	1.42071	0.05728
0.77621	1.41473	0.05823
0.77939	1.40872	0.05919
0.78256	1.40266	0.06017
0.78573	1.39656	0.06117
0.78890	1.39043	0.06218
0.79207	1.38424	0.06322
0.79524	1.37802	0.06426
0.79841	1.37175	0.06533
0.80158	1.36544	0.06641
0.80475	1.35908	0.06751
0.80792	1.35267	0.06863
0.81109	1.34622	0.06977
0.81425	1.33973	0.07093
0.81742	1.33318	0.07211
0.82058	1.32659	0.07331
0.82375	1.31995	0.07453
0.82691	1.31326	0.07577
0.83008	1.30651	0.07703
0.83324	1.29972	0.07832
0.83641	1.29288	0.07963
0.83957	1.28598	0.08096
0.84273	1.27903	0.08232
0.84589	1.27203	0.08370
0.84905	1.26497	0.08511
0.85221	1.25785	0.08655
0.85537	1.25068	0.08801
0.85853	1.24345	0.08950
0.86169	1.23616	0.09102
0.86484	1.22882	0.09257
0.86800	1.22141	0.09415
0.87116	1.21394	0.09576
0.87431	1.20641	0.09740
0.87747	1.19882	0.09907
0.88062	1.19116	0.10079
0.88377	1.18344	0.10253
0.88693	1.17565	0.10431
0.89008	1.16780	0.10613
0.89323	1.15988	0.10799
0.89638	1.15188	0.10988
0.89953	1.14382	0.11182
0.90268	1.13568	0.11380
0.90583	1.12748	0.11583
0.90898	1.11919	0.11790
0.91212	1.11084	0.12001
0.91527	1.10240	0.12218
0.91842	1.09389	0.12440
0.92156	1.08530	0.12666
0.92470	1.07663	0.12899
0.92785	1.06788	0.13137
0.93099	1.05904	0.13380
0.93413	1.05012	0.13630
0.93728	1.04111	0.13886
0.94042	1.03202	0.14149
0.94356	1.02283	0.14419
0.94669	1.01356	0.14695
0.94983	1.00419	0.14979
0.95297	0.99473	0.15271
0.95611	0.98518	0.15571
0.95924	0.97553	0.15879
0.96238	0.96578	0.16196
0.96551	0.95593	0.16522
0.96865	0.94598	0.16858
0.97178	0.93593	0.17203
0.97491	0.92578	0.17560
0.97804	0.91552	0.17927
0.98117	0.90515	0.18306
0.98430	0.89468	0.18696
0.98743	0.88410	0.19100
0.99056	0.87341	0.19516
0.99369	0.86262	0.19947
0.99681	0.85171	0.20392
0.99994	0.84070	0.20853
1.01681	0.77934	0.23643
1.02367	0.75352	0.24947
1.03052	0.72726	0.26366
1.03738	0.70062	0.27914
1.04423	0.67370	0.29604
1.05109	0.64665	0.31449
1.05795	0.61965	0.33460
1.06480	0.59293	0.35646
1.07166	0.56675	0.38011
1.07851	0.54141	0.40553
1.08537	0.51719	0.43259
1.09223	0.49436	0.46112
1.09908	0.47312	0.49086
1.10594	0.45361	0.52153
1.11280	0.43586	0.55282
1.11965	0.41986	0.58446
1.12651	0.40553	0.61620
1.13337	0.39273	0.64785
1.14022	0.38135	0.67925
1.14708	0.37123	0.71030
1.15394	0.36224	0.74093
1.16080	0.35426	0.77107
1.16766	0.34716	0.80072
1.17452	0.34085	0.82986
1.18138	0.33523	0.85848
1.18824	0.33023	0.88660
1.19510	0.32577	0.91422
1.20196	0.32179	0.94137
1.20883	0.31825	0.96806
1.21569	0.31510	0.99430
1.22255	0.31230	1.02012
1.22942	0.30981	1.04553
1.23628	0.30760	1.07056
1.24315	0.30566	1.09521
1.25001	0.30394	1.11952
1.25688	0.30244	1.14348
1.26375	0.30114	1.16713
1.27062	0.30002	1.19046
1.27749	0.29906	1.21351
1.28436	0.29826	1.23627
1.29123	0.29759	1.25877
1.29810	0.29706	1.28101
1.30497	0.29665	1.30300
1.31185	0.29635	1.32476
1.31872	0.29616	1.34629
1.32560	0.29607	1.36761
1.33248	0.29607	1.38872
1.33935	0.29615	1.40963
1.34623	0.29632	1.43034
1.35311	0.29657	1.45088
1.36000	0.29688	1.47123
1.36688	0.29727	1.49142
1.37376	0.29773	1.51144
1.38065	0.29824	1.53130
1.38753	0.29881	1.55101
1.39442	0.29944	1.57057
1.40131	0.30013	1.58998
1.40820	0.30086	1.60926
1.41509	0.30164	1.62841
1.42199	0.30247	1.64742
1.42888	0.30334	1.66632
1.43578	0.30426	1.68509
1.44267	0.30522	1.70374
1.44957	0.30622	1.72228
1.45647	0.30725	1.74071
1.46337	0.30832	1.75904
1.47028	0.30943	1.77726
1.47718	0.31057	1.79538
1.48409	0.31175	1.81340
1.49100	0.31295	1.83133
1.49791	0.31419	1.84916
1.50482	0.31546	1.86691
1.51173	0.31675	1.88457
1.51865	0.31808	1.90214
1.52556	0.31943	1.91963
1.53248	0.32081	1.93704
1.53940	0.32221	1.95438
1.54633	0.32364	1.97163
1.55325	0.32510	1.98882
1.56018	0.32657	2.00593
1.56711	0.32808	2.02297
1.57404	0.32960	2.03994
1.58097	0.33115	2.05685
1.58790	0.33272	2.07369
1.59484	0.33431	2.09046
1.60178	0.33592	2.10718
1.60872	0.33755	2.12383
1.61566	0.33920	2.14042
1.62260	0.34087	2.15696
1.62955	0.34257	2.17344
1.63650	0.34428	2.18986
1.64345	0.34601	2.20623
1.65040	0.34775	2.22255
1.65736	0.34952	2.23882
1.66432	0.35130	2.25503
1.67128	0.35311	2.27120
1.67824	0.35492	2.28732
1.68520	0.35676	2.30339
