Material: mixed crystals / In2O3-SnO2 / Minenkov-wafer-top
Optical constants. A. Minenkov, S. Hollweger, J. Duchoslav, O. Erdene-Ochir, M. Weise, E. Ermilova, A. Hertwig, M. Schiek. Monitoring the electrochemical failure of indium tin oxide electrodes via operando ellipsometry. ACS Appl Mater Interfaces 16, 9517-9531 (2024) (Numerical data kindly provided by Manuela Schiek)
Comments: 88 nm thick sputter-coated, graded ITO layer on a SiO2-Si wafer. Top part of the layer.
Conditions: {"film_thickness": "88e-9", "substrate": "SiO2/Si"}
wavelength (um)	n	k
0.19146	2.12305	0.61165
0.19465	2.13053	0.63792
0.19784	2.14486	0.65244
0.20104	2.16200	0.65713
0.20423	2.17917	0.65412
0.20742	2.19464	0.64551
0.21062	2.20741	0.63331
0.21381	2.21713	0.61928
0.21701	2.22391	0.60501
0.22020	2.22825	0.59179
0.22340	2.23097	0.58062
0.22659	2.23316	0.57216
0.22979	2.23609	0.56668
0.23298	2.24117	0.56395
0.23618	2.24970	0.56319
0.23938	2.26275	0.56304
0.24257	2.28080	0.56165
0.24577	2.30355	0.55692
0.24897	2.32976	0.54691
0.25216	2.35738	0.53030
0.25536	2.38395	0.50676
0.25856	2.40712	0.47701
0.26176	2.42511	0.44260
0.26496	2.43701	0.40550
0.26815	2.44275	0.36766
0.27135	2.44284	0.33067
0.27455	2.43819	0.29569
0.27775	2.42981	0.26339
0.28095	2.41865	0.23410
0.28415	2.40556	0.20786
0.28735	2.39122	0.18455
0.29055	2.37617	0.16395
0.29375	2.36080	0.14581
0.29695	2.34542	0.12986
0.30015	2.33023	0.11584
0.30335	2.31536	0.10352
0.30655	2.30092	0.09267
0.30975	2.28695	0.08310
0.31295	2.27350	0.07465
0.31615	2.26058	0.06718
0.31935	2.24817	0.06055
0.32255	2.23629	0.05467
0.32576	2.22490	0.04942
0.32896	2.21400	0.04475
0.33216	2.20355	0.04057
0.33536	2.19354	0.03682
0.33856	2.18395	0.03346
0.34176	2.17475	0.03044
0.34497	2.16592	0.02773
0.34817	2.15743	0.02527
0.35137	2.14928	0.02306
0.35457	2.14144	0.02106
0.35777	2.13388	0.01925
0.36098	2.12661	0.01761
0.36418	2.11958	0.01613
0.36738	2.11281	0.01478
0.37058	2.10626	0.01356
0.37379	2.09992	0.01246
0.37699	2.09379	0.01146
0.38019	2.08785	0.01055
0.38339	2.08209	0.00973
0.38660	2.07651	0.00899
0.38980	2.07108	0.00832
0.39300	2.06581	0.00771
0.39621	2.06068	0.00717
0.39941	2.05569	0.00669
0.40261	2.05083	0.00626
0.40581	2.04609	0.00587
0.40902	2.04147	0.00553
0.41222	2.03697	0.00523
0.41542	2.03257	0.00498
0.41863	2.02827	0.00475
0.42183	2.02406	0.00457
0.42503	2.01995	0.00441
0.42823	2.01593	0.00429
0.43144	2.01199	0.00419
0.43464	2.00813	0.00412
0.43784	2.00434	0.00407
0.44105	2.00064	0.00405
0.44425	1.99700	0.00405
0.44745	1.99344	0.00408
0.45065	1.98994	0.00412
0.45386	1.98651	0.00418
0.45706	1.98314	0.00426
0.46026	1.97984	0.00436
0.46346	1.97661	0.00445
0.46667	1.97344	0.00455
0.46987	1.97031	0.00465
0.47307	1.96723	0.00475
0.47627	1.96420	0.00486
0.47947	1.96121	0.00496
0.48267	1.95825	0.00507
0.48588	1.95534	0.00518
0.48908	1.95245	0.00529
0.49228	1.94960	0.00540
0.49548	1.94678	0.00551
0.49868	1.94399	0.00563
0.50188	1.94123	0.00575
0.50508	1.93849	0.00586
0.50828	1.93577	0.00598
0.51149	1.93308	0.00611
0.51469	1.93041	0.00623
0.51789	1.92776	0.00635
0.52109	1.92513	0.00648
0.52429	1.92252	0.00661
0.52749	1.91992	0.00674
0.53069	1.91734	0.00687
0.53389	1.91478	0.00701
0.53709	1.91223	0.00714
0.54028	1.90969	0.00728
0.54348	1.90717	0.00742
0.54668	1.90466	0.00756
0.54988	1.90216	0.00770
0.55308	1.89968	0.00785
0.55628	1.89720	0.00800
0.55948	1.89473	0.00814
0.56267	1.89227	0.00830
0.56587	1.88982	0.00845
0.56907	1.88737	0.00860
0.57227	1.88493	0.00876
0.57546	1.88250	0.00892
0.57866	1.88008	0.00908
0.58186	1.87766	0.00924
0.58505	1.87524	0.00941
0.58825	1.87283	0.00957
0.59144	1.87043	0.00974
0.59464	1.86802	0.00991
0.59783	1.86562	0.01009
0.60103	1.86323	0.01026
0.60422	1.86083	0.01044
0.60742	1.85844	0.01062
0.61061	1.85605	0.01080
0.61381	1.85366	0.01099
0.61700	1.85128	0.01117
0.62019	1.84889	0.01136
0.62339	1.84650	0.01155
0.62658	1.84412	0.01174
0.62977	1.84173	0.01194
0.63296	1.83934	0.01214
0.63616	1.83696	0.01234
0.63935	1.83457	0.01254
0.64254	1.83218	0.01274
0.64573	1.82979	0.01295
0.64892	1.82739	0.01316
0.65211	1.82500	0.01337
0.65530	1.82260	0.01359
0.65849	1.82020	0.01380
0.66168	1.81780	0.01402
0.66487	1.81539	0.01424
0.66805	1.81299	0.01447
0.67124	1.81057	0.01470
0.67443	1.80816	0.01493
0.67762	1.80574	0.01516
0.68080	1.80332	0.01539
0.68399	1.80089	0.01563
0.68718	1.79846	0.01587
0.69036	1.79602	0.01611
0.69355	1.79358	0.01636
0.69673	1.79113	0.01661
0.69992	1.78869	0.01686
0.70310	1.78623	0.01711
0.70628	1.78377	0.01737
0.70947	1.78130	0.01763
0.71265	1.77883	0.01789
0.71583	1.77635	0.01815
0.71902	1.77387	0.01842
0.72220	1.77138	0.01869
0.72538	1.76888	0.01897
0.72856	1.76638	0.01924
0.73174	1.76387	0.01952
0.73492	1.76136	0.01981
0.73810	1.75884	0.02009
0.74128	1.75631	0.02038
0.74446	1.75377	0.02067
0.74763	1.75123	0.02097
0.75081	1.74868	0.02127
0.75399	1.74612	0.02157
0.75716	1.74356	0.02187
0.76034	1.74098	0.02218
0.76352	1.73840	0.02249
0.76669	1.73582	0.02280
0.76987	1.73322	0.02312
0.77304	1.73062	0.02344
0.77621	1.72800	0.02377
0.77939	1.72538	0.02410
0.78256	1.72275	0.02443
0.78573	1.72012	0.02476
0.78890	1.71747	0.02510
0.79207	1.71482	0.02544
0.79524	1.71215	0.02579
0.79841	1.70948	0.02614
0.80158	1.70680	0.02649
0.80475	1.70411	0.02685
0.80792	1.70141	0.02721
0.81109	1.69870	0.02757
0.81425	1.69598	0.02794
0.81742	1.69325	0.02831
0.82058	1.69052	0.02868
0.82375	1.68777	0.02906
0.82691	1.68501	0.02944
0.83008	1.68224	0.02983
0.83324	1.67947	0.03022
0.83641	1.67668	0.03061
0.83957	1.67388	0.03101
0.84273	1.67108	0.03141
0.84589	1.66826	0.03182
0.84905	1.66543	0.03223
0.85221	1.66259	0.03265
0.85537	1.65975	0.03307
0.85853	1.65688	0.03349
0.86169	1.65402	0.03392
0.86484	1.65113	0.03435
0.86800	1.64824	0.03479
0.87116	1.64534	0.03522
0.87431	1.64243	0.03567
0.87747	1.63950	0.03612
0.88062	1.63656	0.03657
0.88377	1.63362	0.03703
0.88693	1.63066	0.03750
0.89008	1.62769	0.03796
0.89323	1.62470	0.03844
0.89638	1.62171	0.03891
0.89953	1.61870	0.03940
0.90268	1.61569	0.03988
0.90583	1.61266	0.04038
0.90898	1.60962	0.04087
0.91212	1.60656	0.04137
0.91527	1.60350	0.04188
0.91842	1.60042	0.04239
0.92156	1.59733	0.04291
0.92470	1.59423	0.04343
0.92785	1.59111	0.04396
0.93099	1.58798	0.04449
0.93413	1.58484	0.04503
0.93728	1.58169	0.04557
0.94042	1.57852	0.04612
0.94356	1.57534	0.04668
0.94669	1.57215	0.04724
0.94983	1.56895	0.04780
0.95297	1.56573	0.04837
0.95611	1.56250	0.04895
0.95924	1.55925	0.04953
0.96238	1.55599	0.05012
0.96551	1.55272	0.05072
0.96865	1.54943	0.05132
0.97178	1.54613	0.05192
0.97491	1.54282	0.05253
0.97804	1.53949	0.05315
0.98117	1.53615	0.05378
0.98430	1.53280	0.05441
0.98743	1.52943	0.05505
0.99056	1.52604	0.05569
0.99369	1.52265	0.05634
0.99681	1.51923	0.05700
0.99994	1.51581	0.05766
1.01681	1.49704	0.06137
1.02367	1.48928	0.06293
1.03052	1.48144	0.06453
1.03738	1.47352	0.06617
1.04423	1.46552	0.06785
1.05109	1.45743	0.06957
1.05795	1.44927	0.07133
1.06480	1.44101	0.07313
1.07166	1.43267	0.07497
1.07851	1.42425	0.07686
1.08537	1.41573	0.07879
1.09223	1.40712	0.08077
1.09908	1.39842	0.08280
1.10594	1.38962	0.08488
1.11280	1.38073	0.08701
1.11965	1.37174	0.08919
1.12651	1.36265	0.09143
1.13337	1.35346	0.09373
1.14022	1.34417	0.09608
1.14708	1.33477	0.09850
1.15394	1.32527	0.10097
1.16080	1.31566	0.10352
1.16766	1.30593	0.10613
1.17452	1.29610	0.10881
1.18138	1.28615	0.11156
1.18824	1.27609	0.11439
1.19510	1.26591	0.11730
1.20196	1.25560	0.12029
1.20883	1.24518	0.12336
1.21569	1.23463	0.12652
1.22255	1.22395	0.12978
1.22942	1.21315	0.13312
1.23628	1.20221	0.13657
1.24315	1.19114	0.14012
1.25001	1.17993	0.14378
1.25688	1.16858	0.14755
1.26375	1.15710	0.15145
1.27062	1.14547	0.15546
1.27749	1.13369	0.15961
1.28436	1.12177	0.16389
1.29123	1.10969	0.16831
1.29810	1.09746	0.17288
1.30497	1.08508	0.17761
1.31185	1.07254	0.18250
1.31872	1.05985	0.18757
1.32560	1.04699	0.19282
1.33248	1.03397	0.19826
1.33935	1.02079	0.20390
1.34623	1.00744	0.20976
1.35311	0.99394	0.21584
1.36000	0.98026	0.22216
1.36688	0.96643	0.22873
1.37376	0.95243	0.23556
1.38065	0.93828	0.24268
1.38753	0.92397	0.25009
1.39442	0.90951	0.25781
1.40131	0.89490	0.26586
1.40820	0.88015	0.27426
1.41509	0.86528	0.28303
1.42199	0.85029	0.29219
1.42888	0.83520	0.30175
1.43578	0.82002	0.31173
1.44267	0.80477	0.32217
1.44957	0.78947	0.33307
1.45647	0.77415	0.34445
1.46337	0.75884	0.35634
1.47028	0.74357	0.36875
1.47718	0.72837	0.38168
1.48409	0.71329	0.39515
1.49100	0.69836	0.40917
1.49791	0.68362	0.42373
1.50482	0.66913	0.43882
1.51173	0.65492	0.45444
1.51865	0.64104	0.47057
1.52556	0.62754	0.48718
1.53248	0.61445	0.50424
1.53940	0.60180	0.52172
1.54633	0.58963	0.53957
1.55325	0.57795	0.55776
1.56018	0.56680	0.57625
1.56711	0.55617	0.59497
1.57404	0.54607	0.61390
1.58097	0.53650	0.63298
1.58790	0.52746	0.65217
1.59484	0.51894	0.67144
1.60178	0.51092	0.69075
1.60872	0.50338	0.71006
1.61566	0.49631	0.72936
1.62260	0.48969	0.74860
1.62955	0.48349	0.76779
1.63650	0.47770	0.78688
1.64345	0.47228	0.80588
1.65040	0.46723	0.82476
1.65736	0.46252	0.84352
1.66432	0.45813	0.86215
1.67128	0.45404	0.88064
1.67824	0.45024	0.89899
1.68520	0.44670	0.91719
