Material: main / Ge2Sb2Te5 / Frantz-amorphous
Optical constants. J. A. Frantz, J. D. Myers, A. Clabeau, R. Y. Bekele, N. Hong, M. A. Vincenti, M. Gandolfi, J. S. Sanghera. Optical constants of germanium antimony telluride (GST) in amorphous, crystalline, and intermediate states. Opt. Mater. Express 13, 3631-3640 (2023) (See supplemental materials)
Comments: Amorphous Ge2Sb2Te5.
wavelength (um)	n	k
0.35028	2.390	2.137
0.35985	2.467	2.155
0.36941	2.542	2.168
0.37898	2.617	2.179
0.38854	2.691	2.186
0.39811	2.764	2.190
0.40767	2.836	2.191
0.41724	2.906	2.189
0.42680	2.975	2.185
0.43636	3.042	2.178
0.44593	3.108	2.168
0.45549	3.172	2.157
0.46505	3.235	2.143
0.47461	3.296	2.128
0.48417	3.355	2.110
0.49373	3.412	2.091
0.50328	3.467	2.070
0.51284	3.521	2.048
0.52239	3.572	2.025
0.53195	3.622	2.000
0.54150	3.670	1.974
0.55105	3.716	1.948
0.56060	3.761	1.920
0.57014	3.803	1.892
0.57969	3.844	1.863
0.58923	3.884	1.833
0.59877	3.921	1.803
0.60831	3.957	1.773
0.61784	3.991	1.742
0.62738	4.024	1.711
0.63691	4.055	1.679
0.64643	4.085	1.648
0.65596	4.113	1.616
0.66548	4.139	1.584
0.67500	4.165	1.552
0.68452	4.189	1.521
0.69404	4.211	1.489
0.70355	4.233	1.457
0.71306	4.253	1.426
0.72256	4.272	1.394
0.73207	4.290	1.363
0.74156	4.306	1.332
0.75106	4.322	1.302
0.76055	4.337	1.271
0.77004	4.350	1.241
0.77952	4.363	1.211
0.78901	4.375	1.182
0.79848	4.386	1.153
0.80796	4.396	1.124
0.81742	4.405	1.095
0.82689	4.413	1.067
0.83635	4.421	1.040
0.84581	4.428	1.012
0.85526	4.434	0.985
0.86471	4.440	0.959
0.87415	4.444	0.933
0.88359	4.449	0.907
0.89302	4.452	0.882
0.90245	4.455	0.857
0.91188	4.458	0.832
0.92130	4.460	0.808
0.93071	4.461	0.785
0.94012	4.462	0.761
0.94952	4.463	0.739
0.95892	4.463	0.716
0.96832	4.462	0.694
0.97770	4.462	0.673
0.98709	4.460	0.651
0.99646	4.459	0.631
1.0218	4.453	0.577
1.0422	4.446	0.535
1.0627	4.438	0.495
1.0832	4.429	0.457
1.1037	4.419	0.421
1.1242	4.407	0.386
1.1447	4.395	0.353
1.1653	4.382	0.322
1.1858	4.368	0.292
1.2064	4.353	0.264
1.2270	4.338	0.238
1.2475	4.322	0.213
1.2681	4.306	0.189
1.2887	4.289	0.168
1.3094	4.272	0.147
1.3300	4.255	0.128
1.3506	4.238	0.111
1.3713	4.220	0.094
1.3919	4.203	0.080
1.4126	4.185	0.066
1.4333	4.168	0.054
1.4540	4.151	0.043
1.4747	4.133	0.034
1.4954	4.117	0.025
1.5161	4.100	0.018
1.5368	4.084	0.012
1.5576	4.068	0.007
1.5783	4.053	0.004
1.5991	4.039	0.001
1.6199	4.025	0
1.6407	4.013	0
1.6615	4.002	0
1.6823	3.992	0
1.7200	3.976	0
1.7799	3.955	0
1.8399	3.936	0
1.8999	3.921	0
1.9599	3.907	0
2.0198	3.895	0
2.0798	3.884	0
2.1399	3.875	0
2.1998	3.866	0
2.2597	3.858	0
2.3199	3.851	0
2.3795	3.845	0
2.4400	3.839	0
2.5000	3.834	0
2.5598	3.829	0
2.6200	3.824	0
2.6795	3.820	0
2.7397	3.816	0
2.7996	3.813	0
2.8599	3.809	0
2.9194	3.806	0
2.9798	3.803	0
3.0392	3.801	0
3.0992	3.798	0
3.1596	3.796	0
3.2194	3.793	0
3.2795	3.791	0
3.3397	3.789	0
3.3999	3.787	0
3.4589	3.786	0
3.5200	3.784	0
3.5795	3.782	0
3.6398	3.781	0
3.6995	3.780	0
3.7599	3.778	0
3.8195	3.777	0
3.8795	3.776	0
3.9399	3.774	0
3.9992	3.773	0
4.0586	3.772	0
4.1199	3.771	0
4.1797	3.770	0
4.2395	3.769	0
4.2993	3.769	0
4.3589	3.768	0
4.4183	3.767	0
4.4794	3.766	0
4.5382	3.765	0
4.5986	3.765	0
4.6585	3.764	0
4.7200	3.763	0
4.7787	3.763	0
4.8389	3.762	0
4.8984	3.761	0
4.9593	3.761	0
5.0193	3.760	0
5.0783	3.760	0
5.1387	3.759	0
5.1979	3.759	0
5.2585	3.758	0
5.3179	3.758	0
5.3785	3.757	0
5.4378	3.757	0
5.4983	3.757	0
5.5572	3.756	0
5.6175	3.756	0
5.6790	3.755	0
5.7387	3.755	0
5.7997	3.755	0
5.8587	3.754	0
5.9188	3.754	0
5.9768	3.754	0
6.0395	3.753	0
6.0999	3.753	0
6.1578	3.753	0
6.2169	3.753	0
6.2771	3.752	0
6.3385	3.752	0
6.3972	3.752	0
6.4569	3.752	0
6.5178	3.751	0
6.5798	3.751	0
6.6388	3.751	0
6.6988	3.751	0
6.7600	3.750	0
6.8178	3.750	0
6.8765	3.750	0
6.9363	3.750	0
6.9972	3.750	0
7.0591	3.749	0
7.1172	3.749	0
7.1763	3.749	0
7.2364	3.749	0
7.2975	3.749	0
7.3597	3.749	0
7.4176	3.748	0
7.4764	3.748	0
7.5362	3.748	0
7.5969	3.748	0
7.6587	3.748	0
7.7156	3.748	0
7.7793	3.748	0
7.8381	3.747	0
7.8978	3.747	0
7.9584	3.747	0
8.0200	3.747	0
8.0762	3.747	0
8.1396	3.747	0
8.1975	3.747	0
8.2562	3.746	0
8.3158	3.746	0
8.3763	3.746	0
8.4376	3.746	0
8.4999	3.746	0
8.5560	3.746	0
8.6200	3.746	0
8.6777	3.746	0
8.7362	3.746	0
8.7954	3.746	0
8.8555	3.745	0
8.9164	3.745	0
8.9782	3.745	0
9.0329	3.745	0
9.0963	3.745	0
9.1525	3.745	0
9.2176	3.745	0
9.2753	3.745	0
9.3338	3.745	0
9.3930	3.745	0
9.4529	3.745	0
9.5136	3.745	0
9.5751	3.744	0
9.6374	3.744	0
9.6914	3.744	0
9.7552	3.744	0
9.8199	3.744	0
9.8760	3.744	0
9.9328	3.744	0
9.9998	3.744	0
10.058	3.744	0
10.117	3.744	0
10.176	3.744	0
10.237	3.744	0
10.298	3.744	0
10.359	3.744	0
10.422	3.744	0
10.485	3.743	0
10.549	3.743	0
10.614	3.743	0
10.680	3.743	0
10.746	3.743	0
10.813	3.743	0
10.881	3.743	0
10.950	3.743	0
11.020	3.743	0
11.091	3.743	0
11.162	3.743	0
11.235	3.743	0
11.308	3.743	0
11.383	3.743	0
11.458	3.743	0
11.535	3.743	0
11.612	3.743	0
11.691	3.742	0
11.771	3.742	0
11.851	3.742	0
11.933	3.742	0
12.016	3.742	0
12.100	3.742	0
12.185	3.742	0
12.272	3.742	0
12.360	3.742	0
12.449	3.742	0
12.539	3.742	0
12.631	3.742	0
12.724	3.742	0
12.818	3.742	0
12.914	3.742	0
13.011	3.742	0
13.110	3.742	0
13.210	3.742	0
13.312	3.742	0
13.415	3.742	0
13.520	3.741	0
13.627	3.741	0
13.735	3.741	0
13.845	3.741	0
13.957	3.741	0
14.070	3.741	0
14.186	3.741	0
14.303	3.741	0
14.423	3.741	0
14.544	3.741	0
14.667	3.741	0
14.793	3.741	0
14.921	3.741	0
15.051	3.741	0
15.183	3.741	0
15.317	3.741	0
15.454	3.741	0
15.594	3.741	0
15.736	3.741	0
15.880	3.741	0
16.028	3.741	0
16.178	3.741	0
16.330	3.741	0
16.486	3.741	0
16.645	3.740	0
16.807	3.740	0
16.972	3.740	0
17.140	3.740	0
17.312	3.740	0
17.487	3.740	0
17.666	3.740	0
17.848	3.740	0
18.034	3.740	0
18.225	3.740	0
18.419	3.740	0
18.617	3.740	0
18.820	3.740	0
19.027	3.740	0
19.239	3.740	0
19.456	3.740	0
19.677	3.740	0
19.904	3.740	0
20.136	3.740	0
20.373	3.740	0
20.616	3.740	0
20.865	3.740	0
21.120	3.740	0
21.381	3.740	0
21.649	3.740	0
21.924	3.740	0
22.205	3.740	0
22.494	3.740	0
22.791	3.740	0
23.095	3.740	0
23.408	3.740	0
23.730	3.740	0
24.060	3.739	0
24.400	3.739	0
24.749	3.739	0
25.109	3.739	0
25.479	3.739	0
25.860	3.739	0
26.253	3.739	0
26.658	3.739	0
27.075	3.739	0
27.506	3.739	0
28.027	3.739	0
29.047	3.739	0
