Material: main / MgF2 / Franta
Optical constants. D. Franta, D. Nečas, A. Giglia, P. Franta, I. Ohlídal. Universal dispersion model for characterization of optical thin films over wide spectral range: Application to magnesium fluoride. Appl. Surf. Sci. 421, 424–429 (2017) (Numerical data kindly provided by Daniel Franta)
Comments: Film MgF2; Deposited by e-beam evaporation on c-Si; 134.2 nm thick film with an polycrystalline structure; Heterogenous data processing combining ellipsometric and spectrophotometric measurements; Room temperature.
Conditions: {"film_thickness": 1.342e-07, "substrate": "c-Si"}
wavelength (um)	n	k
0.0275043	0.877031408467	0.0823003423743
0.0281449	0.877565556209	0.0885349954299
0.0288005	0.876347817795	0.0945086443125
0.0294713	0.874020831996	0.101431127504
0.0301578	0.871379509243	0.110053369853
0.0308603	0.870235183692	0.120898064594
0.0315791	0.872934248464	0.131920480516
0.0323147	0.877798397246	0.139139267853
0.0330674	0.880227917008	0.14406772022
0.0338376	0.883072632599	0.151465314007
0.0346258	0.891857266723	0.153896266505
0.0354323	0.893343779912	0.146624669875
0.0362577	0.884662483572	0.14224849877
0.0371022	0.871790367094	0.144145451272
0.0379664	0.857706194296	0.153130396761
0.0388508	0.848466793309	0.170300484826
0.0397557	0.849962116502	0.183995044388
0.0406818	0.845409128196	0.19270556565
0.0416294	0.847837853313	0.205255115478
0.042599	0.844783997978	0.206461912976
0.0435913	0.837183385142	0.213505571634
0.0446067	0.830315477654	0.217430450979
0.0456457	0.813774766723	0.217393289008
0.0467089	0.781891411799	0.22483045315
0.0477969	0.744572359211	0.254813500477
0.0489102	0.723096007326	0.296666745939
0.0500495	0.696937611393	0.334790847352
0.0512153	0.663308668583	0.403778838422
0.0524083	0.666456494128	0.504264773775
0.053629	0.720509033301	0.588914453437
0.0548782	0.778246603601	0.630347259964
0.0561565	0.817020433228	0.674315986718
0.0574645	0.877581382425	0.726021244325
0.0588031	0.952182449698	0.751683514701
0.0601728	1.01669710095	0.762805755164
0.0615744	1.08146371782	0.771624347278
0.0630086	1.1516759967	0.768448100374
0.0644763	1.21814586283	0.7468489955
0.0659781	1.26986713037	0.710992019134
0.0675149	1.30178645871	0.671935178545
0.0690876	1.317676024	0.641885304421
0.0706968	1.33000954815	0.627599246957
0.0723436	1.35408463721	0.622038688242
0.0740287	1.38960710157	0.604697316413
0.075753	1.41328160032	0.570747842607
0.0775175	1.41692959054	0.543320426163
0.0793231	1.41974170952	0.532963427789
0.0811708	1.43349123127	0.526540951114
0.0830615	1.45040566033	0.51217626081
0.0849963	1.45814314629	0.494093925079
0.0869761	1.45823461264	0.486968052118
0.089002	1.47011600763	0.49218518542
0.0910751	1.49820896706	0.482489674398
0.0931966	1.50628026536	0.450265040598
0.0953674	1.47923063276	0.431668988306
0.0975888	1.43099154599	0.452999038499
0.0998619	1.3720485881	0.556735492469
0.102188	1.46317620873	0.826014008395
0.104568	1.92285728715	0.894264128037
0.107004	2.20257036387	0.495968919714
0.109496	2.09346392616	0.153379004363
0.112047	1.91027863398	0.0384416593014
0.114657	1.79939103879	0.0185503272292
0.117328	1.73328614558	0.0126193790335
0.12006	1.68688353225	0.00860641774261
0.122857	1.65110409036	0.00569206498964
0.125719	1.62220711051	0.0036604384153
0.128647	1.59822229666	0.00229589731705
0.131644	1.57794252979	0.00140819011733
0.13471	1.56055395477	0.000846561743929
0.137848	1.54547292171	0.000499858260051
0.141059	1.53226428847	0.00029043673532
0.144344	1.52059556956	0.000166354049558
0.147707	1.51020848116	9.40798146106e-05
0.151147	1.50089983772	5.26131601341e-05
0.154668	1.49250803287	2.91363561308e-05
0.15827	1.48490317313	1.59987315685e-05
0.161957	1.4779797593	8.72115099788e-06
0.16573	1.47165121073	4.72490769275e-06
0.16959	1.46584574611	2.54685870411e-06
0.17354	1.4605032693	1.36722109451e-06
0.177582	1.45557300127	7.31639312591e-07
0.181719	1.4510116667	3.90620589719e-07
0.185952	1.44678209382	2.08239698058e-07
0.190283	1.44285212337	1.10930055722e-07
0.194715	1.43919375018	5.90904329486e-08
0.199251	1.43578244119	3.14957134724e-08
0.203892	1.4325965883	1.68080191897e-08
0.208641	1.4296170653	8.98583347099e-09
0.213501	1.42682686606	4.81510094716e-09
0.218474	1.42421080647	2.58743573401e-09
0.223563	1.42175527716	1.39491340725e-09
0.22877	1.41944803681	7.54779445714e-10
0.234099	1.41727803837	4.1006788757e-10
0.239552	1.41523528191	2.23773655105e-10
0.245132	1.41331068949	1.22693591851e-10
0.250842	1.41149599809	6.76122013237e-11
0.256685	1.40978366759	3.74574362495e-11
0.262664	1.40816680134	2.08674748391e-11
0.268782	1.40663907727	1.16928372832e-11
0.275043	1.40519468793	6.59140652412e-12
0.281449	1.40382828808	3.73874439056e-12
0.288005	1.40253494879	2.13420443956e-12
0.294713	1.40131011695	1.22623631091e-12
0.301578	1.40014957965	7.09248274239e-13
0.308603	1.39904943253	4.13009044727e-13
0.315791	1.3980060518	2.42160188101e-13
0.323147	1.39701606917	1.42977112793e-13
0.330674	1.39607634963	8.50127154774e-14
0.338376	1.39518397145	5.09075844109e-14
0.346258	1.3943362083	3.07032931541e-14
0.354323	1.39353051309	1.86513050913e-14
0.362577	1.39276450351	1.14121853185e-14
0.371022	1.39203594891	7.03352649228e-15
0.379664	1.3913427584	4.36644210586e-15
0.388508	1.39068297011	2.73045164948e-15
0.397557	1.39005474138	1.71985587551e-15
0.406818	1.3894563399	1.09117858472e-15
0.416294	1.3888861355	6.9732998801e-16
0.42599	1.38834259282	4.48858414776e-16
0.435913	1.38782426443	2.91002143203e-16
0.446067	1.38732978465	1.90013173398e-16
0.456457	1.38685786376	1.24955302465e-16
0.467089	1.38640728281	8.27541653577e-17
0.477969	1.38597688868	5.51909808702e-17
0.489102	1.38556558965	3.70652226287e-17
0.500495	1.38517235125	2.50646108623e-17
0.512153	1.38479619236	1.70657482021e-17
0.524083	1.38443618175	1.16985640354e-17
0.53629	1.38409143468	8.07335920429e-18
0.548782	1.38376110986	5.60868485387e-18
0.561565	1.38344440659	3.92213376718e-18
0.574645	1.38314056204	2.76062255325e-18
0.588031	1.38284884878	1.9556124542e-18
0.601728	1.38256857242	1.39417355836e-18
0.615744	1.38229906939	1.00017430661e-18
0.630086	1.38203970489	7.21980246374e-19
0.644763	1.3817898709	5.24361971481e-19
0.659781	1.38154898436	3.83140778128e-19
0.675149	1.38131648543	2.81625254686e-19
0.690876	1.38109183577	2.08226151222e-19
0.706968	1.380874517	1.54850847585e-19
0.723436	1.3806640292	1.15816529294e-19
0.740287	1.38045988939	8.71104023878e-20
0.75753	1.38026163021	6.58833676808e-20
0.775175	1.38006879852	5.01016000482e-20
0.793231	1.37988095405	3.83055030463e-20
0.811708	1.37969766818	2.9442065947e-20
0.830615	1.37951852261	2.27476619472e-20
0.849963	1.37934310812	1.76656882333e-20
0.869761	1.37917102332	1.37883957482e-20
0.89002	1.3790018732	1.08155978553e-20
0.910751	1.37883526813	8.52521524466e-21
0.931966	1.37867082222	6.75216170468e-21
0.953674	1.37850815189	5.37313606895e-21
0.975888	1.37834687443	4.2956163177e-21
0.998619	1.37818660618	3.44985753305e-21
1.02188	1.37802696085	2.78304708682e-21
1.04568	1.37786754719	2.25501615344e-21
1.07004	1.37770796635	1.83507908758e-21
1.09496	1.37754780959	1.49969379746e-21
1.12047	1.37738665385	1.2307223591e-21
1.14657	1.37722405813	1.0141327432e-21
1.17328	1.37705955722	8.39278647437e-22
1.2006	1.37689265522	7.97157516691e-22
1.22857	1.37672281519	2.44738432684e-20
1.25719	1.3765494464	3.55379490207e-18
1.28647	1.37637188551	3.38600622071e-16
1.31644	1.37618936968	2.11984857154e-14
1.3471	1.37600099637	8.92940297892e-13
1.37848	1.37580565847	2.58858936776e-11
1.41059	1.37560193523	5.27668219101e-10
1.44344	1.37538789389	7.71939953758e-09
1.47707	1.37516067898	8.26332311323e-08
1.51147	1.37491563943	6.5928889865e-07
1.54668	1.3746447737	3.98974996048e-06
1.5827	1.37433548262	1.86200557565e-05
1.61957	1.3739742106	6.80820563346e-05
1.6573	1.3735624283	0.000197969648439
1.6959	1.37314376644	0.000464335148829
1.7354	1.3728174652	0.000890329313943
1.77582	1.3727026197	0.00141340926974
1.81719	1.37285631924	0.00188030577968
1.85952	1.37321043343	0.00212052964559
1.90283	1.37359369897	0.0020497483277
1.94715	1.3738279252	0.00171607802321
1.99251	1.37381842947	0.00125670138074
2.03892	1.37357581273	0.000812469064207
2.08641	1.37317500762	0.000467787868583
2.13501	1.37269932322	0.000241847012886
2.18474	1.37220664066	0.000113156499981
2.23563	1.37172368989	4.8271291826e-05
2.2877	1.37125557689	1.89070957734e-05
2.34099	1.3707973555	6.84510556352e-06
2.39552	1.37034158242	2.30510470469e-06
2.45132	1.36988161235	7.26342780952e-07
2.50842	1.36941236224	2.15364933352e-07
2.56685	1.36893006278	6.04082796193e-08
2.62664	1.3684318355	1.61095116196e-08
2.68782	1.36791532333	4.10379962424e-09
2.75043	1.36737843886	1.00310063469e-09
2.81449	1.36681923524	2.3625624228e-10
2.88005	1.3662357553	5.38298355722e-11
2.94713	1.36562592513	1.19092479076e-11
3.01578	1.36498737226	2.56739556987e-12
3.08603	1.36431707032	5.41109009642e-13
3.15791	1.36361032184	1.11849278042e-13
3.23147	1.36285720703	2.27736627944e-14
3.30674	1.36201680038	1.65477237318e-07
3.38376	1.36116919367	0.000349499040938
3.46258	1.36065919146	0.000139400804562
3.54323	1.36018664003	0.000113819342754
3.62577	1.35897629588	1.92559859692e-11
3.71022	1.35796741598	2.40731124752e-13
3.79664	1.35694219434	8.28989294816e-13
3.88508	1.35587843417	2.69380704578e-12
3.97557	1.35476794832	8.28216980472e-12
4.06818	1.35360562319	2.41540084302e-11
4.16294	1.35238737819	6.69820611985e-11
4.2599	1.35110942388	1.77035605009e-10
4.35913	1.34976800991	4.46949272366e-10
4.46067	1.34835929372	1.08011558432e-09
4.56457	1.34687931104	2.50365033619e-09
4.67089	1.345323917	5.57706511216e-09
4.77969	1.3436886553	1.19609437003e-08
4.89102	1.34196886049	2.47409055347e-08
5.00495	1.34015961522	4.94406489307e-08
5.12153	1.33825557581	9.56018050584e-08
5.24083	1.33625110092	1.79153250485e-07
5.3629	1.33414010277	3.25831551793e-07
5.48782	1.3319161973	5.75938067961e-07
5.61565	1.32957238074	9.90716957824e-07
5.74645	1.32710117584	1.66060115292e-06
5.88031	1.32449459822	2.71549354952e-06
6.01728	1.32174404906	4.33712444526e-06
6.15744	1.31884022195	6.77335658231e-06
6.30086	1.31577312132	1.03541053232e-05
6.44763	1.3125319786	1.55083222738e-05
6.59781	1.3091051896	2.27812754315e-05
6.75149	1.30548024709	3.28511750664e-05
6.90876	1.30164366712	4.65440658892e-05
7.06968	1.29758090737	6.48458541862e-05
7.23436	1.29327627474	8.89103780632e-05
7.40287	1.28871281917	0.000120062565529
7.5753	1.28387220954	0.000159795954879
7.75175	1.27873458687	0.000209764161364
7.93231	1.27327838924	0.000271766242445
8.11708	1.26748014182	0.000347726314924
8.30615	1.26131420425	0.000439668183035
8.49963	1.25475246646	0.000549686120713
8.69761	1.24776398241	0.00067991329214
8.9002	1.24031452871	0.000832489578106
9.10751	1.23236607281	0.0010095307985
9.31966	1.22387613091	0.00121310149677
9.53674	1.21479699053	0.00144519362651
9.75888	1.20507476494	0.001707713776
9.98619	1.19464823517	0.00200248228912
10.2188	1.18344741946	0.00233124950949
10.4568	1.17139178623	0.00269573893312
10.7004	1.15838799372	0.00309773727911
10.9496	1.1443269931	0.00353927243623
11.2047	1.12908027216	0.00402295933027
11.4657	1.11249494335	0.0045526600365
11.7328	1.09438729669	0.00513470640444
12.006	1.07453434765	0.00578007563435
12.2857	1.05266280536	0.0065080901213
12.5719	1.02843473325	0.00735242865535
12.8647	1.00142888009	0.00837049840391
13.1644	0.97111602957	0.0096575974355
13.471	0.936825368151	0.0113680232467
13.7848	0.897696064504	0.0137469558201
14.1059	0.852602458976	0.017181114763
14.4344	0.800029007532	0.02228712724
14.7707	0.737843810138	0.0300875727123
15.1147	0.662854994983	0.0424249615287
15.4668	0.569887185507	0.0631574211185
15.827	0.450133197675	0.102675596013
16.1957	0.29903092581	0.19789372594
16.573	0.197352828823	0.380971368579
16.959	0.170131731739	0.555241486627
17.354	0.165652566645	0.706916332654
17.7582	0.168808129809	0.847534898045
18.1719	0.174969880039	0.985066048474
18.5952	0.182504963408	1.12616597847
19.0283	0.191999641611	1.27786496081
19.4715	0.20726539148	1.44779142614
19.9251	0.236228262853	1.64269555112
20.3892	0.289363193363	1.86656167113
20.8641	0.374333142309	2.12480340072
21.3501	0.507956085967	2.45629236785
21.8474	0.861689541778	2.89806683654
22.3563	1.60144359726	3.06713782541
22.877	2.14203231052	2.69283787488
23.4099	2.26778545326	2.39536352987
23.9552	2.24087396238	2.26852248875
24.5132	2.44660775935	2.62603555639
25.0842	3.32919998431	2.52717542187
25.6685	3.84075451952	1.66384727817
26.2664	3.62881204718	0.847689731029
26.8782	3.19682037564	0.486953549003
27.5043	2.8830242219	0.370318690569
28.1449	2.66509440756	0.310299911085
28.8005	2.48641947304	0.269843901856
29.4713	2.32523792984	0.245092531282
30.1578	2.17011660385	0.234516218483
30.8603	2.01029032298	0.24007380805
31.5791	1.83499945043	0.271612885712
32.3147	1.63890094035	0.352295767519
33.0674	1.43980584187	0.520132139009
33.8376	1.30540948861	0.794300323542
34.6258	1.29925085654	1.10969948726
35.4323	1.39093010765	1.3926207163
36.2577	1.53212295579	1.64615012633
37.1022	1.73214344354	1.89307183749
37.9664	1.99012286368	2.11672798643
38.8508	2.34403820842	2.43041378869
39.7557	3.18755808502	2.61989905276
40.6818	4.08170708896	1.98664216284
41.6294	4.18209988193	1.01362029457
42.599	3.80241816243	0.490415055657
43.5913	3.50180801518	0.322403547558
44.6067	3.32079683711	0.236484549131
45.6457	3.18710909297	0.171122172179
46.7089	3.07620541186	0.122538018643
47.7969	2.98179208014	0.0885734071522
48.9102	2.90146225608	0.0659452955439
50.0495	2.83343774324	0.0513523225436
51.2153	2.77593691597	0.0420639644556
52.4083	2.72719446321	0.0360821833026
53.629	2.68559310986	0.0320718208836
54.8782	2.6497520705	0.0292029428217
56.1565	2.61855089512	0.026989352131
57.4645	2.5911090469	0.0251596955148
58.8031	2.56674568827	0.0235681303969
60.1728	2.54493639431	0.0221381454146
61.5744	2.52527508431	0.0208297421438
63.0086	2.50744378627	0.0196213713928
64.4763	2.49118993911	0.0185004802795
65.9781	2.47630985118	0.0174587838078
67.5149	2.46263678649	0.0164899994302
69.0876	2.45003237972	0.0155888092539
70.6968	2.43838039615	0.0147504087421
72.3436	2.42758213396	0.0139703234088
74.0287	2.4175529828	0.0132443415013
75.753	2.4082198054	0.012568492998
77.5175	2.39951891419	0.0119390444512
79.3231	2.39139448498	0.0113524972013
81.1708	2.38379729719	0.0108055844322
83.0615	2.37668372162	0.010295265862
84.9963	2.37001489866	0.00981872014993
86.9761	2.36375606497	0.0093733355095
89.002	2.3578759969	0.00895669908479
91.0751	2.35234654705	0.00856658558403
93.1966	2.34714225538	0.00820094557072
95.3674	2.34224002106	0.00785789371933
97.5888	2.33761882357	0.00753569726432
99.8619	2.33325948448	0.00723276480458
102.188	2.32914446281	0.00694763557575
104.568	2.32525767843	0.00667896926316
107.004	2.32158435898	0.00642553639755
109.496	2.31811090631	0.00618620935458
112.047	2.31482477992	0.00595995395978
114.657	2.31171439455	0.00574582169086
117.328	2.30876902981	0.00554294245941
120.06	2.30597875042	0.00535051794755
122.857	2.30333433534	0.0051678154723
