Material: main / WSe2 / Ushkov-o
Optical constants. A. Ushkov, D. Dyubo, N. Belozerova, I. Kazantsev, D. Yakubovsky, A. Syuy, G. Tikhonowski, D. Tselikov, I. Martynov, G. Ermolaev, D. Grudinin, A. Melentev, A. Popov, A. Chernov, A. Bolshakov, A. Vyshnevyy, A. Arsenin, A. Kabashin, G. Tselikov, V. Volkov. Tungsten diselenide nanoparticles produced via femtosecond ablation for SERS and theranostics applications. Nanomaterials, 15(1), 4 (2025) (Numerical data kindly provided by Georgy Ermolaev)
Comments: WSe2 nanoparticles with diameters from 5 to 150 nm synthesized by femtosecond laser ablation.
Conditions: {"direction": "o"}
wavelength (um)	n	k
0.360	3.38578	2.27738
0.364	3.42522	2.34783
0.368	3.47643	2.40168
0.372	3.53543	2.44019
0.376	3.59895	2.46462
0.380	3.66429	2.47635
0.384	3.72921	2.47682
0.388	3.79190	2.46761
0.392	3.85094	2.45033
0.396	3.90532	2.42666
0.400	3.95441	2.39827
0.404	3.99792	2.36676
0.408	4.03590	2.33363
0.412	4.06869	2.30023
0.416	4.09684	2.26771
0.420	4.12111	2.23698
0.424	4.14241	2.20875
0.428	4.16172	2.18344
0.432	4.18005	2.16120
0.436	4.19837	2.14196
0.440	4.21757	2.12535
0.444	4.23835	2.11085
0.448	4.26119	2.09776
0.452	4.28626	2.08540
0.456	4.31346	2.07327
0.460	4.34252	2.06137
0.464	4.37350	2.05069
0.468	4.40857	2.04358
0.472	4.45654	2.04137
0.476	4.53338	2.02760
0.480	4.61615	1.96265
0.484	4.65252	1.87253
0.488	4.65916	1.79884
0.492	4.65814	1.74038
0.496	4.65462	1.69035
0.500	4.64891	1.64574
0.504	4.64075	1.60572
0.508	4.63019	1.57031
0.512	4.61754	1.53982
0.516	4.60334	1.51468
0.520	4.58827	1.49530
0.524	4.57323	1.48210
0.528	4.55929	1.47546
0.532	4.54778	1.47570
0.536	4.54040	1.48295
0.540	4.53926	1.49700
0.544	4.54692	1.51700
0.548	4.56622	1.54105
0.552	4.59985	1.56574
0.556	4.64944	1.58592
0.560	4.71431	1.59504
0.564	4.79042	1.58654
0.568	4.87033	1.55605
0.572	4.94495	1.50335
0.576	5.00632	1.43276
0.580	5.04998	1.35136
0.584	5.07539	1.26651
0.588	5.08483	1.18390
0.592	5.08186	1.10701
0.596	5.07004	1.03733
0.600	5.05234	0.97509
0.604	5.03100	0.91980
0.608	5.00759	0.87068
0.612	4.98313	0.82686
0.616	4.95827	0.78756
0.620	4.93340	0.75207
0.624	4.90874	0.71982
0.628	4.88439	0.69032
0.632	4.86038	0.66319
0.636	4.83669	0.63813
0.640	4.81328	0.61490
0.644	4.79010	0.59330
0.648	4.76708	0.57321
0.652	4.74414	0.55451
0.656	4.72122	0.53713
0.660	4.69824	0.52100
0.664	4.67512	0.50612
0.668	4.65178	0.49248
0.672	4.62812	0.48009
0.676	4.60406	0.46901
0.680	4.57950	0.45930
0.684	4.55432	0.45107
0.688	4.52840	0.44448
0.692	4.50162	0.43971
0.696	4.47384	0.43704
0.700	4.44489	0.43681
0.704	4.41462	0.43951
0.708	4.38288	0.44578
0.712	4.34958	0.45646
0.716	4.31469	0.47274
0.720	4.27842	0.49622
0.724	4.24139	0.52905
0.728	4.20502	0.57415
0.732	4.17228	0.63518
0.736	4.14893	0.71630
0.740	4.14526	0.82061
0.744	4.17763	0.94625
0.748	4.26638	1.07892
0.752	4.42415	1.18489
0.756	4.63491	1.21849
0.760	4.84648	1.15413
0.764	5.00231	1.01334
0.768	5.08174	0.84591
0.772	5.09940	0.69090
0.776	5.07993	0.56375
0.780	5.04252	0.46482
0.784	4.99847	0.38906
0.788	4.95358	0.33089
0.792	4.91049	0.28569
0.796	4.87024	0.25001
0.800	4.83309	0.22135
0.804	4.79894	0.19794
0.808	4.76757	0.17850
0.812	4.73868	0.16210
0.816	4.71199	0.14809
0.820	4.68724	0.13596
0.824	4.66421	0.12533
0.828	4.64270	0.11594
0.832	4.62253	0.10755
0.836	4.60355	0.10001
0.840	4.58563	0.09318
0.844	4.56867	0.08695
0.848	4.55256	0.08124
0.852	4.53722	0.07598
0.856	4.52259	0.07111
0.860	4.50859	0.06659
0.864	4.49518	0.06239
0.868	4.48231	0.05846
0.872	4.46993	0.05477
0.876	4.45801	0.05132
0.880	4.44650	0.04807
0.884	4.43540	0.04501
0.888	4.42465	0.04212
0.892	4.41425	0.03940
0.896	4.40418	0.03683
0.900	4.39440	0.03439
0.904	4.38491	0.03209
0.908	4.37568	0.02991
0.912	4.36672	0.02784
0.916	4.35799	0.02588
0.920	4.34949	0.02403
0.924	4.34121	0.02227
0.928	4.33314	0.02061
0.932	4.32526	0.01904
0.936	4.31758	0.01755
0.940	4.31008	0.01614
0.944	4.30276	0.01481
0.948	4.29560	0.01355
0.952	4.28860	0.01236
0.956	4.28177	0.01124
0.960	4.27508	0.01019
0.964	4.26853	0.00920
0.968	4.26213	0.00828
0.972	4.25587	0.00741
0.976	4.24974	0.00660
0.980	4.24373	0.00584
0.984	4.23785	0.00514
0.988	4.23210	0.00449
0.992	4.22646	0.00389
0.996	4.22094	0.00333
1.000	4.21553	0.00283
1.004	4.21023	0.00237
1.008	4.20504	0.00195
1.012	4.19996	0.00158
1.016	4.19498	0.00125
1.020	4.19010	0.00096
1.024	4.18533	0.00071
1.028	4.18066	0.00050
1.032	4.17608	0.00033
1.036	4.17161	0.00020
1.040	4.16724	0.00010
1.044	4.16297	0.00003
1.048	4.15880	0.00000
1.052	4.15475	0.00000
1.056	4.15081	0.00000
1.060	4.14697	0.00000
1.064	4.14321	0.00000
1.068	4.13954	0.00000
1.072	4.13595	0.00000
1.076	4.13243	0.00000
1.080	4.12899	0.00000
1.084	4.12561	0.00000
1.088	4.12230	0.00000
1.092	4.11905	0.00000
1.096	4.11587	0.00000
1.100	4.11274	0.00000
1.104	4.10968	0.00000
1.108	4.10666	0.00000
1.112	4.10371	0.00000
1.116	4.10080	0.00000
1.120	4.09794	0.00000
1.124	4.09514	0.00000
1.128	4.09238	0.00000
1.132	4.08967	0.00000
1.136	4.08700	0.00000
1.140	4.08438	0.00000
1.144	4.08180	0.00000
1.148	4.07926	0.00000
1.152	4.07676	0.00000
1.156	4.07431	0.00000
1.160	4.07189	0.00000
1.164	4.06951	0.00000
1.168	4.06716	0.00000
1.172	4.06485	0.00000
1.176	4.06258	0.00000
1.180	4.06034	0.00000
1.184	4.05813	0.00000
1.188	4.05596	0.00000
1.192	4.05382	0.00000
1.196	4.05171	0.00000
1.200	4.04963	0.00000
1.204	4.04758	0.00000
1.208	4.04556	0.00000
1.212	4.04356	0.00000
1.216	4.04160	0.00000
1.220	4.03966	0.00000
1.224	4.03775	0.00000
1.228	4.03587	0.00000
1.232	4.03401	0.00000
1.236	4.03217	0.00000
1.240	4.03036	0.00000
1.244	4.02858	0.00000
1.248	4.02682	0.00000
1.252	4.02508	0.00000
1.256	4.02336	0.00000
1.260	4.02167	0.00000
1.264	4.02000	0.00000
1.268	4.01835	0.00000
1.272	4.01672	0.00000
1.276	4.01511	0.00000
1.280	4.01352	0.00000
1.284	4.01196	0.00000
1.288	4.01041	0.00000
1.292	4.00888	0.00000
1.296	4.00737	0.00000
1.300	4.00588	0.00000
1.304	4.00440	0.00000
1.308	4.00295	0.00000
1.312	4.00151	0.00000
1.316	4.00009	0.00000
1.320	3.99868	0.00000
1.324	3.99729	0.00000
1.328	3.99592	0.00000
1.332	3.99457	0.00000
1.336	3.99323	0.00000
1.340	3.99190	0.00000
1.344	3.99059	0.00000
1.348	3.98930	0.00000
1.352	3.98802	0.00000
1.356	3.98676	0.00000
1.360	3.98551	0.00000
1.364	3.98427	0.00000
1.368	3.98305	0.00000
1.372	3.98184	0.00000
1.376	3.98064	0.00000
1.380	3.97946	0.00000
1.384	3.97829	0.00000
1.388	3.97713	0.00000
1.392	3.97599	0.00000
1.396	3.97486	0.00000
1.400	3.97374	0.00000
1.404	3.97263	0.00000
1.408	3.97154	0.00000
1.412	3.97045	0.00000
1.416	3.96938	0.00000
1.420	3.96832	0.00000
1.424	3.96727	0.00000
1.428	3.96623	0.00000
1.432	3.96520	0.00000
1.436	3.96418	0.00000
1.440	3.96317	0.00000
1.444	3.96217	0.00000
1.448	3.96119	0.00000
1.452	3.96021	0.00000
1.456	3.95924	0.00000
1.460	3.95829	0.00000
1.464	3.95734	0.00000
1.468	3.95640	0.00000
1.472	3.95547	0.00000
1.476	3.95455	0.00000
1.480	3.95364	0.00000
1.484	3.95274	0.00000
1.488	3.95184	0.00000
1.492	3.95096	0.00000
1.496	3.95008	0.00000
1.500	3.94922	0.00000
1.504	3.94836	0.00000
1.508	3.94751	0.00000
1.512	3.94666	0.00000
1.516	3.94583	0.00000
1.520	3.94500	0.00000
1.524	3.94418	0.00000
1.528	3.94337	0.00000
1.532	3.94257	0.00000
1.536	3.94177	0.00000
1.540	3.94098	0.00000
1.544	3.94020	0.00000
1.548	3.93943	0.00000
1.552	3.93866	0.00000
1.556	3.93790	0.00000
1.560	3.93714	0.00000
1.564	3.93640	0.00000
1.568	3.93566	0.00000
1.572	3.93492	0.00000
1.576	3.93420	0.00000
1.580	3.93348	0.00000
1.584	3.93276	0.00000
1.588	3.93206	0.00000
1.592	3.93136	0.00000
1.596	3.93066	0.00000
1.600	3.92997	0.00000
1.604	3.92929	0.00000
1.608	3.92861	0.00000
1.612	3.92794	0.00000
1.616	3.92728	0.00000
1.620	3.92662	0.00000
1.624	3.92596	0.00000
1.628	3.92532	0.00000
1.632	3.92467	0.00000
1.636	3.92404	0.00000
1.640	3.92341	0.00000
1.644	3.92278	0.00000
1.648	3.92216	0.00000
1.652	3.92154	0.00000
1.656	3.92093	0.00000
1.660	3.92033	0.00000
1.664	3.91973	0.00000
1.668	3.91913	0.00000
1.672	3.91854	0.00000
1.676	3.91796	0.00000
1.680	3.91737	0.00000
1.684	3.91680	0.00000
1.688	3.91623	0.00000
1.692	3.91566	0.00000
1.696	3.91510	0.00000
1.700	3.91454	0.00000
