Material: main / Bi2Te3 / Ermolaev
Optical constants. G. A. Ermolaev, I. S. Vyslanko, M. A. El-Sayed, M. K. Tatmyshevskiy, A. S. Slavich, D. I. Yakubovsky, A. Eghbali, R. I. Romanov, A. M. Markeev, I. A. Kruglov, S. M. Novikov, A. A. Vyshnevyy, A. V. Arsenin, V. S. Volkov. Unveiling the broadband optical properties of Bi2Te3: Ultrahigh refractive index and promising applications. Appl. Phys. Lett., 125, 241101 (2024) (Numerical data kindly provided by Georgy Ermolaev)
Comments: Bi2Te3 CVD flakes on silicon substrate with 290 nm silicon dioxide.
Conditions: {"substrate": "Si/SiO2"}
wavelength (um)	n	k
0.450	1.84113	3.64345
0.453	1.86264	3.65595
0.456	1.88389	3.66826
0.459	1.90478	3.68037
0.462	1.92539	3.69234
0.465	1.94565	3.70415
0.468	1.96562	3.71587
0.471	1.98524	3.72749
0.474	2.00459	3.73906
0.477	2.02360	3.75059
0.480	2.04234	3.76211
0.483	2.06076	3.77363
0.486	2.07893	3.78518
0.489	2.09680	3.79679
0.492	2.11445	3.80845
0.495	2.13182	3.82022
0.498	2.14900	3.83207
0.501	2.16594	3.84406
0.504	2.18271	3.85617
0.507	2.19928	3.86844
0.510	2.21571	3.88086
0.513	2.23198	3.89346
0.516	2.24814	3.90622
0.519	2.26418	3.91918
0.522	2.28014	3.93232
0.525	2.29603	3.94568
0.528	2.31187	3.95922
0.531	2.32768	3.97299
0.534	2.34348	3.98695
0.537	2.35929	4.00113
0.540	2.37512	4.01550
0.543	2.39099	4.03010
0.546	2.40691	4.04489
0.549	2.42292	4.05990
0.552	2.43901	4.07508
0.555	2.45522	4.09048
0.558	2.47154	4.10605
0.561	2.48801	4.12182
0.564	2.50462	4.13775
0.567	2.52141	4.15387
0.570	2.53836	4.17012
0.573	2.55552	4.18655
0.576	2.57286	4.20311
0.579	2.59044	4.21981
0.582	2.60822	4.23663
0.585	2.62627	4.25358
0.588	2.64453	4.27061
0.591	2.66307	4.28776
0.594	2.68184	4.30498
0.597	2.70092	4.32228
0.600	2.72024	4.33963
0.603	2.73988	4.35705
0.606	2.75978	4.37449
0.609	2.78001	4.39197
0.612	2.80050	4.40946
0.615	2.82134	4.42696
0.618	2.84245	4.44446
0.621	2.86391	4.46193
0.624	2.88566	4.47937
0.627	2.90776	4.49677
0.630	2.93015	4.51411
0.633	2.95290	4.53139
0.636	2.97594	4.54859
0.639	2.99934	4.56570
0.642	3.02304	4.58271
0.645	3.04710	4.59960
0.648	3.07145	4.61637
0.651	3.09617	4.63299
0.654	3.12118	4.64948
0.657	3.14655	4.66579
0.660	3.17221	4.68195
0.663	3.19822	4.69790
0.666	3.22452	4.71368
0.669	3.25117	4.72923
0.672	3.27810	4.74458
0.675	3.30537	4.75969
0.678	3.33291	4.77458
0.681	3.36079	4.78919
0.684	3.38893	4.80357
0.687	3.41739	4.81765
0.690	3.44611	4.83147
0.693	3.47514	4.84498
0.696	3.50441	4.85822
0.699	3.53397	4.87111
0.702	3.56377	4.88371
0.705	3.59385	4.89595
0.708	3.62414	4.90789
0.711	3.65471	4.91945
0.714	3.68547	4.93068
0.717	3.71648	4.94151
0.720	3.74768	4.95201
0.723	3.77910	4.96209
0.726	3.81070	4.97183
0.729	3.84250	4.98112
0.732	3.87446	4.99006
0.735	3.90660	4.99855
0.738	3.93887	5.00667
0.741	3.97131	5.01432
0.744	4.00387	5.02159
0.747	4.03656	5.02839
0.750	4.06934	5.03480
0.753	4.10224	5.04073
0.756	4.13522	5.04626
0.759	4.16828	5.05129
0.762	4.20140	5.05593
0.765	4.23458	5.06007
0.768	4.26779	5.06380
0.771	4.30104	5.06703
0.774	4.33430	5.06985
0.777	4.36757	5.07216
0.780	4.40083	5.07407
0.783	4.43407	5.07546
0.786	4.46728	5.07645
0.789	4.50044	5.07694
0.792	4.53355	5.07702
0.795	4.56658	5.07660
0.798	4.59955	5.07577
0.801	4.63241	5.07445
0.804	4.66518	5.07273
0.807	4.69782	5.07052
0.810	4.73036	5.06793
0.813	4.76273	5.06485
0.816	4.79498	5.06139
0.819	4.82705	5.05745
0.822	4.85897	5.05315
0.825	4.89069	5.04839
0.828	4.92225	5.04327
0.831	4.95358	5.03770
0.834	4.98472	5.03178
0.837	5.01562	5.02544
0.840	5.04632	5.01875
0.843	5.07676	5.01166
0.846	5.10698	5.00424
0.849	5.13693	4.99643
0.852	5.16664	4.98831
0.855	5.19606	4.97981
0.858	5.22523	4.97102
0.861	5.25410	4.96187
0.864	5.28271	4.95245
0.867	5.31099	4.94269
0.870	5.33902	4.93267
0.873	5.36671	4.92233
0.876	5.39412	4.91175
0.879	5.42119	4.90088
0.882	5.44798	4.88978
0.885	5.47442	4.87841
0.888	5.50058	4.86682
0.891	5.52637	4.85499
0.894	5.55187	4.84296
0.897	5.57701	4.83070
0.900	5.60186	4.81827
0.903	5.62634	4.80562
0.906	5.65052	4.79282
0.909	5.67433	4.77983
0.912	5.69785	4.76670
0.915	5.72099	4.75340
0.918	5.74384	4.73997
0.921	5.76632	4.72640
0.924	5.78850	4.71272
0.927	5.81032	4.69890
0.930	5.83184	4.68500
0.933	5.85299	4.67098
0.936	5.87386	4.65688
0.939	5.89436	4.64269
0.942	5.91458	4.62843
0.945	5.93444	4.61410
0.948	5.95401	4.59972
0.951	5.97319	4.58527
0.954	5.99212	4.57078
0.957	6.01071	4.55626
0.960	6.02913	4.54171
0.963	6.04704	4.52712
0.966	6.06479	4.51253
0.969	6.08220	4.49792
0.972	6.09930	4.48330
0.975	6.11623	4.46868
0.978	6.13269	4.45407
0.981	6.14899	4.43946
0.984	6.16499	4.42487
0.987	6.18069	4.41030
0.990	6.19623	4.39574
0.993	6.21133	4.38124
0.996	6.22630	4.36675
0.999	6.24097	4.35230
1.002	6.25537	4.33790
1.005	6.26964	4.32352
1.008	6.28349	4.30923
1.011	6.29722	4.29496
1.014	6.31069	4.28075
1.017	6.32391	4.26662
1.020	6.33699	4.25251
1.023	6.34972	4.23851
1.026	6.36232	4.22455
1.029	6.37469	4.21066
1.032	6.38683	4.19686
1.035	6.39886	4.18310
1.038	6.41055	4.16946
1.041	6.42214	4.15586
1.044	6.43352	4.14236
1.047	6.44470	4.12894
1.050	6.45577	4.11557
1.053	6.46655	4.10234
1.056	6.47723	4.08916
1.059	6.48773	4.07607
1.062	6.49804	4.06309
1.065	6.50826	4.05015
1.068	6.51822	4.03736
1.071	6.52810	4.02461
1.074	6.53780	4.01197
1.077	6.54735	3.99944
1.080	6.55682	3.98695
1.083	6.56606	3.97462
1.086	6.57522	3.96233
1.089	6.58424	3.95015
1.092	6.59312	3.93808
1.095	6.60192	3.92605
1.098	6.61052	3.91418
1.101	6.61906	3.90237
1.104	6.62747	3.89065
1.107	6.63576	3.87904
1.110	6.64398	3.86748
1.113	6.65203	3.85608
1.116	6.66002	3.84472
1.119	6.66791	3.83347
1.122	6.67568	3.82232
1.125	6.68340	3.81122
1.128	6.69097	3.80026
1.131	6.69848	3.78936
1.134	6.70590	3.77856
1.137	6.71323	3.76786
1.140	6.72052	3.75720
1.143	6.72767	3.74670
1.146	6.73477	3.73623
1.149	6.74180	3.72587
1.152	6.74874	3.71560
1.155	6.75565	3.70537
1.158	6.76244	3.69529
1.161	6.76919	3.68525
1.164	6.77588	3.67530
1.167	6.78249	3.66545
1.170	6.78907	3.65563
1.173	6.79556	3.64595
1.176	6.80201	3.63632
1.179	6.80840	3.62677
1.182	6.81473	3.61730
1.185	6.82103	3.60788
1.188	6.82726	3.59858
1.191	6.83345	3.58932
1.194	6.83959	3.58015
1.197	6.84568	3.57105
1.200	6.85175	3.56199
1.203	6.85771	3.55311
1.206	6.86368	3.54423
1.209	6.86964	3.53535
1.212	6.87552	3.52661
1.215	6.88136	3.51796
1.218	6.88719	3.50930
1.221	6.89299	3.50071
1.224	6.89872	3.49226
1.227	6.90444	3.48382
1.230	6.91016	3.47537
1.233	6.91579	3.46713
1.236	6.92141	3.45888
1.239	6.92703	3.45064
1.242	6.93259	3.44252
1.245	6.93813	3.43447
1.248	6.94366	3.42641
1.251	6.94916	3.41842
1.254	6.95462	3.41055
1.257	6.96007	3.40268
1.260	6.96552	3.39481
1.263	6.97090	3.38710
1.266	6.97628	3.37940
1.269	6.98166	3.37170
1.272	6.98700	3.36411
1.275	6.99231	3.35657
1.278	6.99763	3.34903
1.281	7.00293	3.34154
1.284	7.00819	3.33415
1.287	7.01344	3.32676
1.290	7.01870	3.31938
1.293	7.02391	3.31213
1.296	7.02912	3.30488
1.299	7.03433	3.29764
1.302	7.03950	3.29048
1.305	7.04467	3.28336
1.308	7.04983	3.27625
1.311	7.05498	3.26918
1.314	7.06010	3.26219
1.317	7.06522	3.25520
1.320	7.07034	3.24821
1.323	7.07542	3.24134
1.326	7.08051	3.23447
1.329	7.08559	3.22759
1.332	7.09065	3.22079
1.335	7.09570	3.21403
1.338	7.10075	3.20726
1.341	7.10580	3.20053
1.344	7.11082	3.19386
1.347	7.11584	3.18720
1.350	7.12086	3.18053
1.353	7.12585	3.17396
1.356	7.13084	3.16739
1.359	7.13583	3.16081
1.362	7.14081	3.15430
1.365	7.14578	3.14781
1.368	7.15074	3.14132
1.371	7.15570	3.13486
1.374	7.16064	3.12845
1.377	7.16559	3.12204
1.380	7.17053	3.11564
1.383	7.17545	3.10930
1.386	7.18037	3.10296
1.389	7.18529	3.09663
1.392	7.19019	3.09033
1.395	7.19509	3.08406
1.398	7.19999	3.07779
1.401	7.20488	3.07154
1.404	7.20976	3.06533
1.407	7.21464	3.05912
1.410	7.21952	3.05291
1.413	7.22437	3.04676
1.416	7.22923	3.04060
1.419	7.23409	3.03445
1.422	7.23893	3.02833
1.425	7.24377	3.02222
1.428	7.24861	3.01612
1.431	7.25344	3.01003
1.434	7.25826	3.00396
1.437	7.26307	2.99790
1.440	7.26789	2.99184
1.443	7.27269	2.98582
1.446	7.27749	2.97980
1.449	7.28228	2.97378
1.452	7.28707	2.96778
1.455	7.29184	2.96180
1.458	7.29662	2.95581
1.461	7.30139	2.94984
1.464	7.30615	2.94388
1.467	7.31090	2.93793
1.470	7.31566	2.93197
1.473	7.32040	2.92605
1.476	7.32513	2.92012
1.479	7.32987	2.91419
1.482	7.33459	2.90828
1.485	7.33930	2.90238
1.488	7.34401	2.89647
1.491	7.34872	2.89058
1.494	7.35341	2.88469
1.497	7.35810	2.87881
1.500	7.36279	2.87293
