Material: main / MoSe2 / Zotev-e
Optical constants. P. G. Zotev, Y. Wang, D. Andres-Penares, T. Severs-Millard, S. Randerson, X. Hu, L. Sortino, C. Louca, M. Brotons-Gisbert, T. Huq, S. Vezzoli, R. Sapienza, T. F. Krauss, B. D. Gerardot, A. I. Tartakovskii. Van der Waals materials for applications in nanophotonics. Laser and Photonics Rev. 17, 2200957 (2023) (Numerical data kindly provided by Panaiot Zotev)
Comments: Multilayer crystals. Out-of-plane (extraordinary ray, e). Room temperature.
wavelength (um)	n	k
0.3600	3.28824	0
0.3632	3.28367	0
0.3664	3.27923	0
0.3696	3.27490	0
0.3728	3.27068	0
0.3760	3.26656	0
0.3792	3.26255	0
0.3824	3.25864	0
0.3856	3.25483	0
0.3888	3.25111	0
0.3920	3.24749	0
0.3952	3.24395	0
0.3984	3.24049	0
0.4016	3.23712	0
0.4048	3.23382	0
0.4080	3.23061	0
0.4112	3.22747	0
0.4144	3.22440	0
0.4176	3.22140	0
0.4208	3.21847	0
0.4240	3.21561	0
0.4272	3.21281	0
0.4304	3.21007	0
0.4336	3.20739	0
0.4368	3.20477	0
0.4400	3.20221	0
0.4432	3.19970	0
0.4464	3.19725	0
0.4496	3.19485	0
0.4528	3.19250	0
0.4560	3.19020	0
0.4592	3.18795	0
0.4624	3.18574	0
0.4656	3.18358	0
0.4688	3.18146	0
0.4720	3.17939	0
0.4752	3.17736	0
0.4784	3.17537	0
0.4816	3.17341	0
0.4848	3.17150	0
0.4880	3.16962	0
0.4912	3.16779	0
0.4944	3.16598	0
0.4976	3.16421	0
0.5008	3.16248	0
0.5040	3.16078	0
0.5072	3.15911	0
0.5104	3.15747	0
0.5136	3.15586	0
0.5168	3.15428	0
0.5200	3.15273	0
0.5232	3.15121	0
0.5264	3.14972	0
0.5296	3.14825	0
0.5321	3.14712	0
0.5344	3.14610	0
0.5376	3.14470	0
0.5408	3.14332	0
0.5440	3.14197	0
0.5472	3.14064	0
0.5504	3.13933	0
0.5536	3.13805	0
0.5568	3.13679	0
0.5600	3.13555	0
0.5632	3.13433	0
0.5664	3.13313	0
0.5696	3.13195	0
0.5728	3.13080	0
0.5760	3.12966	0
0.5792	3.12854	0
0.5824	3.12743	0
0.5856	3.12635	0
0.5888	3.12528	0
0.5920	3.12424	0
0.5952	3.12320	0
0.5984	3.12219	0
0.6016	3.12119	0
0.6048	3.12020	0
0.6080	3.11924	0
0.6112	3.11828	0
0.6144	3.11735	0
0.6176	3.11642	0
0.6208	3.11551	0
0.6240	3.11462	0
0.6272	3.11374	0
0.6304	3.11287	0
0.6336	3.11201	0
0.6368	3.11117	0
0.6400	3.11034	0
0.6432	3.10952	0
0.6464	3.10872	0
0.6496	3.10793	0
0.6528	3.10714	0
0.6560	3.10637	0
0.6592	3.10561	0
0.6624	3.10487	0
0.6656	3.10413	0
0.6688	3.10340	0
0.6720	3.10269	0
0.6752	3.10198	0
0.6784	3.10128	0
0.6816	3.10060	0
0.6848	3.09992	0
0.6880	3.09925	0
0.6912	3.09859	0
0.6944	3.09795	0
0.6976	3.09731	0
0.7008	3.09667	0
0.7040	3.09605	0
0.7072	3.09544	0
0.7104	3.09483	0
0.7136	3.09423	0
0.7168	3.09364	0
0.7200	3.09306	0
0.7232	3.09249	0
0.7264	3.09192	0
0.7296	3.09136	0
0.7328	3.09081	0
0.7360	3.09026	0
0.7392	3.08972	0
0.7424	3.08919	0
0.7456	3.08867	0
0.7488	3.08815	0
0.7520	3.08764	0
0.7552	3.08714	0
0.7584	3.08664	0
0.7616	3.08615	0
0.7648	3.08566	0
0.7680	3.08518	0
0.7712	3.08471	0
0.7744	3.08424	0
0.7776	3.08378	0
0.7808	3.08332	0
0.7840	3.08287	0
0.7872	3.08243	0
0.7904	3.08199	0
0.7936	3.08155	0
0.7968	3.08112	0
0.8000	3.08070	0
0.8032	3.08028	0
0.8064	3.07987	0
0.8096	3.07946	0
0.8128	3.07905	0
0.8160	3.07865	0
0.8192	3.07826	0
0.8224	3.07787	0
0.8256	3.07748	0
0.8288	3.07710	0
0.8320	3.07672	0
0.8352	3.07635	0
0.8384	3.07598	0
0.8416	3.07562	0
0.8448	3.07526	0
0.8480	3.07490	0
0.8512	3.07455	0
0.8544	3.07420	0
0.8576	3.07386	0
0.8608	3.07352	0
0.8640	3.07318	0
0.8672	3.07285	0
0.8704	3.07252	0
0.8736	3.07219	0
0.8768	3.07187	0
0.8800	3.07155	0
0.8832	3.07124	0
0.8864	3.07093	0
0.8896	3.07062	0
0.8928	3.07031	0
0.8960	3.07001	0
0.8992	3.06971	0
0.9024	3.06942	0
0.9056	3.06912	0
0.9088	3.06884	0
0.9120	3.06855	0
0.9152	3.06827	0
0.9184	3.06799	0
0.9216	3.06771	0
0.9248	3.06744	0
0.9280	3.06716	0
0.9312	3.06690	0
0.9344	3.06663	0
0.9376	3.06637	0
0.9408	3.06611	0
0.9440	3.06585	0
0.9472	3.06559	0
0.9504	3.06534	0
0.9536	3.06509	0
0.9568	3.06484	0
0.9600	3.06460	0
0.9632	3.06435	0
0.9664	3.06411	0
0.9696	3.06387	0
0.9728	3.06364	0
0.9760	3.06341	0
0.9792	3.06318	0
0.9824	3.06295	0
0.9856	3.06272	0
0.9888	3.06250	0
0.9920	3.06227	0
0.9952	3.06205	0
0.9984	3.06184	0
