Material: main / MoSe2 / Zotev-o
Optical constants. P. G. Zotev, Y. Wang, D. Andres-Penares, T. Severs-Millard, S. Randerson, X. Hu, L. Sortino, C. Louca, M. Brotons-Gisbert, T. Huq, S. Vezzoli, R. Sapienza, T. F. Krauss, B. D. Gerardot, A. I. Tartakovskii. Van der Waals materials for applications in nanophotonics. Laser and Photonics Rev. 17, 2200957 (2023) (Numerical data kindly provided by Panaiot Zotev)
Comments: Multilayer crystals. In-plane (ordinary ray, o). Room temperature.
wavelength (um)	n	k
0.360	2.047	3.308
0.363	2.141	3.372
0.366	2.244	3.431
0.370	2.353	3.484
0.373	2.469	3.530
0.376	2.591	3.567
0.379	2.720	3.594
0.382	2.852	3.610
0.386	2.986	3.612
0.389	3.120	3.600
0.392	3.252	3.575
0.395	3.378	3.536
0.398	3.496	3.484
0.402	3.604	3.422
0.405	3.700	3.351
0.408	3.783	3.275
0.411	3.853	3.196
0.414	3.910	3.117
0.418	3.955	3.039
0.421	3.991	2.966
0.424	4.017	2.898
0.427	4.037	2.835
0.430	4.051	2.779
0.434	4.062	2.729
0.437	4.070	2.686
0.440	4.077	2.648
0.443	4.083	2.616
0.446	4.090	2.588
0.450	4.098	2.564
0.453	4.107	2.544
0.456	4.118	2.526
0.459	4.130	2.511
0.462	4.145	2.497
0.466	4.161	2.484
0.469	4.180	2.472
0.472	4.200	2.461
0.475	4.221	2.449
0.478	4.244	2.437
0.482	4.268	2.424
0.485	4.293	2.411
0.488	4.318	2.397
0.491	4.344	2.382
0.494	4.371	2.366
0.498	4.397	2.349
0.501	4.424	2.331
0.504	4.450	2.312
0.507	4.476	2.293
0.510	4.501	2.272
0.514	4.527	2.251
0.517	4.551	2.229
0.520	4.575	2.207
0.523	4.598	2.184
0.526	4.621	2.160
0.530	4.642	2.136
0.532	4.659	2.117
0.534	4.674	2.100
0.538	4.694	2.075
0.541	4.713	2.050
0.544	4.731	2.025
0.547	4.749	1.999
0.550	4.765	1.974
0.554	4.781	1.948
0.557	4.796	1.923
0.560	4.811	1.897
0.563	4.824	1.872
0.566	4.837	1.847
0.570	4.849	1.822
0.573	4.860	1.797
0.576	4.871	1.773
0.579	4.880	1.749
0.582	4.890	1.725
0.586	4.898	1.702
0.589	4.906	1.680
0.592	4.914	1.658
0.595	4.922	1.637
0.598	4.930	1.616
0.602	4.936	1.597
0.605	4.944	1.577
0.608	4.951	1.559
0.611	4.959	1.541
0.614	4.967	1.524
0.618	4.976	1.507
0.621	4.984	1.490
0.624	4.995	1.473
0.627	5.005	1.457
0.630	5.017	1.440
0.634	5.028	1.423
0.637	5.042	1.406
0.640	5.056	1.388
0.643	5.070	1.369
0.646	5.086	1.348
0.650	5.101	1.326
0.653	5.118	1.303
0.656	5.133	1.277
0.659	5.149	1.250
0.662	5.164	1.220
0.666	5.178	1.189
0.669	5.190	1.156
0.672	5.200	1.120
0.675	5.209	1.084
0.678	5.214	1.046
0.682	5.217	1.007
0.685	5.217	0.967
0.688	5.214	0.928
0.691	5.207	0.889
0.694	5.198	0.851
0.698	5.186	0.815
0.701	5.171	0.780
0.704	5.153	0.747
0.707	5.134	0.717
0.710	5.113	0.689
0.714	5.091	0.664
0.717	5.067	0.641
0.720	5.043	0.622
0.723	5.019	0.605
0.726	4.994	0.591
0.730	4.970	0.580
0.733	4.946	0.571
0.736	4.922	0.565
0.739	4.900	0.561
0.742	4.878	0.560
0.746	4.858	0.561
0.749	4.839	0.565
0.752	4.822	0.571
0.755	4.807	0.579
0.758	4.794	0.589
0.762	4.785	0.600
0.765	4.777	0.614
0.768	4.774	0.629
0.771	4.774	0.646
0.774	4.778	0.663
0.778	4.787	0.680
0.781	4.800	0.696
0.784	4.820	0.711
0.787	4.842	0.723
0.790	4.873	0.731
0.794	4.905	0.735
0.797	4.944	0.732
0.800	4.983	0.722
0.803	5.024	0.702
0.806	5.063	0.673
0.810	5.096	0.636
0.813	5.128	0.591
0.816	5.145	0.541
0.819	5.162	0.487
0.822	5.161	0.432
0.826	5.159	0.379
0.829	5.146	0.328
0.832	5.129	0.282
0.835	5.107	0.241
0.838	5.082	0.204
0.842	5.055	0.173
0.845	5.027	0.145
0.848	4.999	0.123
0.851	4.971	0.103
0.854	4.943	0.087
0.858	4.917	0.074
0.861	4.891	0.062
0.864	4.866	0.053
0.867	4.844	0.046
0.870	4.821	0.040
0.874	4.800	0.035
0.877	4.781	0.031
0.880	4.761	0.028
0.883	4.745	0.026
0.886	4.728	0.024
0.890	4.712	0.023
0.893	4.699	0.021
0.896	4.685	0.020
0.899	4.672	0.019
0.902	4.660	0.018
0.906	4.648	0.017
0.909	4.637	0.016
0.912	4.626	0.015
0.915	4.615	0.014
0.918	4.605	0.013
0.922	4.595	0.013
0.925	4.585	0.012
0.928	4.576	0.011
0.931	4.568	0.010
0.934	4.559	0.010
0.938	4.550	0.009
0.941	4.542	0.009
0.944	4.534	0.008
0.947	4.526	0.007
0.950	4.518	0.007
0.954	4.511	0.007
0.957	4.504	0.006
0.960	4.497	0.006
0.963	4.490	0.005
0.966	4.483	0.005
0.970	4.476	0.005
0.973	4.470	0.004
0.976	4.464	0.004
0.979	4.458	0.004
0.982	4.452	0.004
0.986	4.446	0.003
0.989	4.440	0.003
0.992	4.434	0.003
0.995	4.429	0.003
0.998	4.423	0.002
