Material: organic / (C35H42N2S)n - F8BT / Kamptner-o
Optical constants. A. Kamptner, M. C. Scharber, M. Schiek. Accurate determination of the uniaxial complex refractive index and the optical band gap of polymer thin films to correlate their absorption strength and onset of absorption. Chem. Phys. Chem. e202400233 (2024) (Numerical data kindly provided by Manuela Schiek)
Comments: Ordinary ray (o)
wavelength (um)	n	k
0.19146	1.52622	2.91440E-01
0.19571	1.52090	3.06630E-01
0.19995	1.52663	3.37600E-01
0.20420	1.55102	3.65530E-01
0.20845	1.58929	3.81230E-01
0.21270	1.63788	3.81940E-01
0.21694	1.68698	3.55820E-01
0.22119	1.71286	3.12610E-01
0.22544	1.72211	2.74380E-01
0.22968	1.72532	2.36490E-01
0.23393	1.71706	2.01370E-01
0.23818	1.70115	1.70250E-01
0.24243	1.67474	1.47580E-01
0.24667	1.64521	1.42200E-01
0.25092	1.62687	1.49970E-01
0.25517	1.62353	1.56720E-01
0.25942	1.62451	1.52360E-01
0.26366	1.62038	1.41700E-01
0.26791	1.60953	1.30180E-01
0.27216	1.59306	1.21170E-01
0.27641	1.57230	1.16370E-01
0.28065	1.54841	1.17320E-01
0.28490	1.52289	1.25080E-01
0.28915	1.49693	1.40650E-01
0.29340	1.47309	1.66410E-01
0.29764	1.45644	2.02920E-01
0.30189	1.45329	2.47510E-01
0.30614	1.46782	2.91160E-01
0.31039	1.49486	3.26170E-01
0.31463	1.52902	3.51030E-01
0.31888	1.56687	3.64790E-01
0.32313	1.60392	3.67690E-01
0.32738	1.63525	3.63850E-01
0.33162	1.66341	3.60940E-01
0.33587	1.69826	3.56820E-01
0.34012	1.73946	3.40480E-01
0.34437	1.77626	3.06250E-01
0.34861	1.80046	2.58830E-01
0.35286	1.80550	2.03250E-01
0.35711	1.78720	1.51400E-01
0.36136	1.75256	1.15090E-01
0.36560	1.71456	9.72600E-02
0.36985	1.68049	9.18200E-02
0.37410	1.65102	9.29000E-02
0.37835	1.62492	9.84700E-02
0.38259	1.60179	1.07720E-01
0.38684	1.58135	1.19930E-01
0.39109	1.56354	1.34720E-01
0.39534	1.54821	1.51670E-01
0.39958	1.53505	1.70540E-01
0.40383	1.52408	1.91590E-01
0.40808	1.51556	2.14940E-01
0.41233	1.50996	2.40530E-01
0.41657	1.50797	2.68190E-01
0.42082	1.50995	2.97480E-01
0.42507	1.51642	3.27970E-01
0.42932	1.52821	3.58880E-01
0.43356	1.54529	3.89170E-01
0.43781	1.56769	4.17930E-01
0.44206	1.59552	4.43870E-01
0.44631	1.62787	4.66120E-01
0.45055	1.66401	4.83960E-01
0.45480	1.70323	4.96870E-01
0.45905	1.74490	5.04840E-01
0.46330	1.78856	5.07330E-01
0.46754	1.83359	5.03870E-01
0.47179	1.87955	4.94240E-01
0.47604	1.92570	4.77280E-01
0.48028	1.97044	4.52180E-01
0.48453	2.01203	4.18740E-01
0.48878	2.04784	3.76560E-01
0.49303	2.07444	3.27200E-01
0.49727	2.08989	2.74020E-01
0.50152	2.09345	2.20780E-01
0.50577	2.08627	1.70910E-01
0.51002	2.07051	1.27090E-01
0.51426	2.04889	9.12100E-02
0.51851	2.02471	6.31200E-02
0.52276	1.99992	4.17200E-02
0.52701	1.97577	2.62300E-02
0.53125	1.95313	1.55000E-02
0.53550	1.93264	8.44000E-03
0.53975	1.91453	4.10000E-03
0.54400	1.89861	1.64000E-03
0.54824	1.88481	4.93590E-04
0.55249	1.87306	1.15794E-04
0.55674	1.86290	1.03250E-05
0.56099	1.85400	0
0.56523	1.84609	0
0.56948	1.83895	0
0.57373	1.83245	0
0.57798	1.82651	0
0.58222	1.82103	0
0.58647	1.81595	0
0.59072	1.81124	0
0.59497	1.80684	0
0.59921	1.80273	0
0.60346	1.79887	0
0.60771	1.79524	0
0.61196	1.79181	0
0.61620	1.78858	0
0.62045	1.78551	0
0.62470	1.78261	0
0.62895	1.77985	0
0.63319	1.77722	0
0.63744	1.77471	0
0.64169	1.77233	0
0.64594	1.77004	0
0.65018	1.76786	0
0.65443	1.76577	0
0.65868	1.76376	0
0.66293	1.76184	0
0.66717	1.75999	0
0.67142	1.75822	0
0.67567	1.75651	0
0.67992	1.75486	0
0.68416	1.75327	0
0.68841	1.75175	0
0.69266	1.75027	0
0.69691	1.74884	0
0.70115	1.74747	0
0.70540	1.74613	0
0.70965	1.74485	0
0.71390	1.74360	0
0.71814	1.74239	0
0.72239	1.74122	0
0.72664	1.74008	0
0.73088	1.73898	0
0.73513	1.73791	0
0.73938	1.73688	0
0.74363	1.73587	0
0.74787	1.73489	0
0.75212	1.73394	0
0.75637	1.73301	0
0.76062	1.73211	0
0.76486	1.73123	0
0.76911	1.73038	0
0.77336	1.72955	0
0.77761	1.72874	0
0.78185	1.72795	0
0.78610	1.72718	0
0.79035	1.72643	0
0.79460	1.72569	0
0.79884	1.72498	0
0.80309	1.72428	0
0.80734	1.72360	0
0.81159	1.72294	0
0.81583	1.72229	0
0.82008	1.72165	0
0.82433	1.72103	0
0.82858	1.72043	0
0.83282	1.71984	0
0.83707	1.71926	0
0.84132	1.71869	0
0.84557	1.71813	0
0.84981	1.71759	0
0.85406	1.71706	0
0.85831	1.71654	0
0.86256	1.71603	0
0.86680	1.71553	0
0.87105	1.71504	0
0.87530	1.71456	0
0.87955	1.71409	0
0.88379	1.71363	0
0.88804	1.71318	0
0.89229	1.71274	0
0.89654	1.71231	0
0.90078	1.71188	0
0.90503	1.71146	0
0.90928	1.71105	0
0.91353	1.71065	0
0.91777	1.71026	0
0.92202	1.70987	0
0.92627	1.70949	0
0.93052	1.70912	0
0.93476	1.70875	0
0.93901	1.70839	0
0.94326	1.70804	0
0.94751	1.70769	0
0.95175	1.70735	0
0.95600	1.70701	0
0.96025	1.70669	0
0.96450	1.70636	0
0.96874	1.70604	0
0.97299	1.70573	0
0.97724	1.70542	0
0.98149	1.70512	0
0.98573	1.70482	0
0.98998	1.70453	0
0.99423	1.70424	0
0.99847	1.70396	0
1.00272	1.70368	0
1.00697	1.70341	0
1.01122	1.70314	0
1.01546	1.70287	0
1.01971	1.70261	0
1.02396	1.70235	0
1.02821	1.70210	0
1.03245	1.70185	0
1.03670	1.70160	0
1.04095	1.70136	0
1.04520	1.70112	0
1.04944	1.70088	0
1.05369	1.70065	0
1.05794	1.70042	0
1.06219	1.70020	0
1.06643	1.69998	0
1.07068	1.69976	0
1.07493	1.69954	0
1.07918	1.69933	0
1.08342	1.69912	0
1.08767	1.69892	0
1.09192	1.69871	0
1.09617	1.69851	0
1.10041	1.69832	0
1.10466	1.69812	0
1.10891	1.69793	0
1.11316	1.69774	0
1.11740	1.69755	0
1.12165	1.69737	0
1.12590	1.69719	0
1.13015	1.69701	0
1.13439	1.69683	0
1.13864	1.69666	0
1.14289	1.69648	0
1.14714	1.69631	0
1.15138	1.69615	0
1.15563	1.69598	0
1.15988	1.69582	0
1.16413	1.69565	0
1.16837	1.69550	0
1.17262	1.69534	0
1.17687	1.69518	0
1.18112	1.69503	0
1.18536	1.69488	0
1.18961	1.69473	0
1.19386	1.69458	0
1.19811	1.69444	0
1.20235	1.69429	0
1.20660	1.69415	0
1.21085	1.69401	0
1.21510	1.69387	0
1.21934	1.69373	0
1.22359	1.69360	0
1.22784	1.69346	0
1.23209	1.69333	0
1.23633	1.69320	0
1.24058	1.69307	0
1.24483	1.69294	0
1.24907	1.69282	0
1.25332	1.69269	0
1.25757	1.69257	0
1.26182	1.69245	0
1.26606	1.69233	0
1.27031	1.69221	0
1.27456	1.69209	0
1.27881	1.69197	0
1.28305	1.69186	0
1.28730	1.69175	0
1.29155	1.69163	0
1.29580	1.69152	0
1.30004	1.69141	0
1.30429	1.69130	0
1.30854	1.69120	0
1.31279	1.69109	0
1.31703	1.69098	0
1.32128	1.69088	0
1.32553	1.69078	0
1.32978	1.69068	0
1.33402	1.69058	0
1.33827	1.69048	0
1.34252	1.69038	0
1.34677	1.69028	0
1.35101	1.69018	0
1.35526	1.69009	0
1.35951	1.68999	0
1.36376	1.68990	0
1.36800	1.68981	0
1.37225	1.68972	0
1.37650	1.68963	0
1.38075	1.68954	0
1.38499	1.68945	0
1.38924	1.68936	0
1.39349	1.68927	0
1.39774	1.68919	0
1.40198	1.68910	0
1.40623	1.68902	0
1.41048	1.68893	0
1.41473	1.68885	0
1.41897	1.68877	0
1.42322	1.68869	0
1.42747	1.68861	0
1.43172	1.68853	0
1.43596	1.68845	0
1.44021	1.68837	0
1.44446	1.68830	0
1.44871	1.68822	0
1.45295	1.68814	0
1.45720	1.68807	0
1.46145	1.68799	0
1.46570	1.68792	0
1.46994	1.68785	0
1.47419	1.68778	0
1.47844	1.68771	0
1.48269	1.68763	0
1.48693	1.68756	0
1.49118	1.68750	0
1.49543	1.68743	0
1.49967	1.68736	0
1.50392	1.68729	0
1.50817	1.68722	0
1.51242	1.68716	0
1.51666	1.68709	0
1.52091	1.68703	0
1.52516	1.68696	0
1.52941	1.68690	0
1.53365	1.68684	0
1.53790	1.68677	0
1.54215	1.68671	0
1.54640	1.68665	0
1.55064	1.68659	0
1.55489	1.68653	0
1.55914	1.68647	0
1.56339	1.68641	0
1.56763	1.68635	0
1.57188	1.68629	0
1.57613	1.68623	0
1.58038	1.68618	0
1.58462	1.68612	0
1.58887	1.68606	0
1.59312	1.68601	0
1.59737	1.68595	0
1.60161	1.68590	0
1.60586	1.68584	0
1.61011	1.68579	0
1.61436	1.68574	0
1.61860	1.68568	0
1.62285	1.68563	0
1.62710	1.68558	0
1.63135	1.68553	0
1.63559	1.68548	0
1.63984	1.68543	0
1.64409	1.68537	0
1.64834	1.68532	0
1.65258	1.68528	0
1.65683	1.68523	0
1.66108	1.68518	0
1.66533	1.68513	0
1.66957	1.68508	0
1.67382	1.68503	0
1.67807	1.68499	0
1.68232	1.68494	0
1.68656	1.68489	0
