Material: organic / (C35H42N2S)n - F8BT / Kamptner-e
Optical constants. A. Kamptner, M. C. Scharber, M. Schiek. Accurate determination of the uniaxial complex refractive index and the optical band gap of polymer thin films to correlate their absorption strength and onset of absorption. Chem. Phys. Chem. e202400233 (2024) (Numerical data kindly provided by Manuela Schiek)
Comments: Extraordinary ray (e)
wavelength (um)	n	k
0.19146	1.65134	2.33210E-01
0.19571	1.60208	2.19840E-01
0.19995	1.58813	2.23610E-01
0.20420	1.58293	2.22020E-01
0.20845	1.57960	2.23130E-01
0.21270	1.57950	2.24930E-01
0.21694	1.57737	2.29670E-01
0.22119	1.58190	2.47660E-01
0.22544	1.61113	2.63410E-01
0.22968	1.65063	2.50410E-01
0.23393	1.66837	2.16050E-01
0.23818	1.66208	1.85580E-01
0.24243	1.64320	1.71350E-01
0.24667	1.62426	1.77680E-01
0.25092	1.62158	1.99390E-01
0.25517	1.64123	2.18580E-01
0.25942	1.67320	2.20450E-01
0.26366	1.70341	2.05290E-01
0.26791	1.72524	1.77490E-01
0.27216	1.73358	1.42150E-01
0.27641	1.72705	1.06800E-01
0.28065	1.70710	7.80100E-02
0.28490	1.67826	6.07400E-02
0.28915	1.64553	5.69200E-02
0.29340	1.61422	6.88100E-02
0.29764	1.59328	9.57700E-02
0.30189	1.58968	1.29180E-01
0.30614	1.60371	1.58780E-01
0.31039	1.62920	1.76760E-01
0.31463	1.65742	1.81680E-01
0.31888	1.68329	1.76370E-01
0.32313	1.70491	1.64100E-01
0.32738	1.72136	1.47040E-01
0.33162	1.73179	1.27120E-01
0.33587	1.73657	1.06460E-01
0.34012	1.73621	8.66100E-02
0.34437	1.73150	6.90600E-02
0.34861	1.72418	5.45100E-02
0.35286	1.71547	4.27200E-02
0.35711	1.70602	3.33500E-02
0.36136	1.69623	2.59800E-02
0.36560	1.68630	2.03500E-02
0.36985	1.67632	1.62700E-02
0.37410	1.66638	1.36100E-02
0.37835	1.65659	1.23300E-02
0.38259	1.64704	1.23700E-02
0.38684	1.63784	1.36400E-02
0.39109	1.62908	1.61100E-02
0.39534	1.62082	1.97500E-02
0.39958	1.61317	2.45100E-02
0.40383	1.60628	3.04300E-02
0.40808	1.60029	3.74400E-02
0.41233	1.59537	4.55200E-02
0.41657	1.59185	5.46700E-02
0.42082	1.59009	6.46000E-02
0.42507	1.59023	7.48600E-02
0.42932	1.59240	8.50100E-02
0.43356	1.59641	9.46900E-02
0.43781	1.60210	1.03560E-01
0.44206	1.60934	1.11310E-01
0.44631	1.61780	1.17780E-01
0.45055	1.62722	1.22790E-01
0.45480	1.63736	1.26250E-01
0.45905	1.64795	1.28160E-01
0.46330	1.65878	1.28470E-01
0.46754	1.66963	1.27140E-01
0.47179	1.68028	1.24210E-01
0.47604	1.69048	1.19670E-01
0.48028	1.69994	1.13510E-01
0.48453	1.70827	1.05870E-01
0.48878	1.71511	9.70800E-02
0.49303	1.72033	8.75500E-02
0.49727	1.72395	7.76500E-02
0.50152	1.72596	6.76700E-02
0.50577	1.72648	5.78900E-02
0.51002	1.72563	4.85500E-02
0.51426	1.72351	3.98800E-02
0.51851	1.72035	3.20800E-02
0.52276	1.71639	2.53000E-02
0.52701	1.71196	1.96900E-02
0.53125	1.70736	1.51000E-02
0.53550	1.70278	1.13900E-02
0.53975	1.69832	8.47000E-03
0.54400	1.69405	6.20000E-03
0.54824	1.69004	4.47000E-03
0.55249	1.68632	3.21000E-03
0.55674	1.68292	2.32000E-03
0.56099	1.67982	1.70000E-03
0.56523	1.67705	1.29000E-03
0.56948	1.67456	1.01000E-03
0.57373	1.67233	7.95798E-04
0.57798	1.67029	6.19060E-04
0.58222	1.66842	4.72214E-04
0.58647	1.66668	3.52195E-04
0.59072	1.66506	2.55745E-04
0.59497	1.66355	1.79485E-04
0.59921	1.66213	1.20732E-04
0.60346	1.66080	7.71862E-05
0.60771	1.65956	4.58648E-05
0.61196	1.65838	2.46110E-05
0.61620	1.65727	1.14952E-05
0.62045	1.65623	4.17711E-06
0.62470	1.65524	1.08900E-06
0.62895	1.65430	0
0.63319	1.65341	0
0.63744	1.65257	0
0.64169	1.65176	0
0.64594	1.65099	0
0.65018	1.65025	0
0.65443	1.64954	0
0.65868	1.64886	0
0.66293	1.64821	0
0.66717	1.64758	0
0.67142	1.64698	0
0.67567	1.64640	0
0.67992	1.64584	0
0.68416	1.64530	0
0.68841	1.64478	0
0.69266	1.64427	0
0.69691	1.64378	0
0.70115	1.64331	0
0.70540	1.64285	0
0.70965	1.64241	0
0.71390	1.64198	0
0.71814	1.64156	0
0.72239	1.64116	0
0.72664	1.64077	0
0.73088	1.64039	0
0.73513	1.64002	0
0.73938	1.63965	0
0.74363	1.63930	0
0.74787	1.63896	0
0.75212	1.63863	0
0.75637	1.63831	0
0.76062	1.63799	0
0.76486	1.63768	0
0.76911	1.63738	0
0.77336	1.63709	0
0.77761	1.63681	0
0.78185	1.63653	0
0.78610	1.63626	0
0.79035	1.63599	0
0.79460	1.63573	0
0.79884	1.63548	0
0.80309	1.63523	0
0.80734	1.63499	0
0.81159	1.63476	0
0.81583	1.63453	0
0.82008	1.63430	0
0.82433	1.63408	0
0.82858	1.63386	0
0.83282	1.63365	0
0.83707	1.63345	0
0.84132	1.63324	0
0.84557	1.63304	0
0.84981	1.63285	0
0.85406	1.63266	0
0.85831	1.63247	0
0.86256	1.63229	0
0.86680	1.63211	0
0.87105	1.63193	0
0.87530	1.63176	0
0.87955	1.63159	0
0.88379	1.63143	0
0.88804	1.63126	0
0.89229	1.63110	0
0.89654	1.63095	0
0.90078	1.63079	0
0.90503	1.63064	0
0.90928	1.63049	0
0.91353	1.63035	0
0.91777	1.63020	0
0.92202	1.63006	0
0.92627	1.62992	0
0.93052	1.62979	0
0.93476	1.62965	0
0.93901	1.62952	0
0.94326	1.62939	0
0.94751	1.62927	0
0.95175	1.62914	0
0.95600	1.62902	0
0.96025	1.62890	0
0.96450	1.62878	0
0.96874	1.62866	0
0.97299	1.62855	0
0.97724	1.62843	0
0.98149	1.62832	0
0.98573	1.62821	0
0.98998	1.62811	0
0.99423	1.62800	0
0.99847	1.62790	0
1.00272	1.62780	0
1.00697	1.62769	0
1.01122	1.62759	0
1.01546	1.62749	0
1.01971	1.62740	0
1.02396	1.62730	0
1.02821	1.62721	0
1.03245	1.62712	0
1.03670	1.62703	0
1.04095	1.62694	0
1.04520	1.62685	0
1.04944	1.62676	0
1.05369	1.62668	0
1.05794	1.62659	0
1.06219	1.62651	0
1.06643	1.62643	0
1.07068	1.62634	0
1.07493	1.62626	0
1.07918	1.62618	0
1.08342	1.62611	0
1.08767	1.62603	0
1.09192	1.62596	0
1.09617	1.62588	0
1.10041	1.62581	0
1.10466	1.62573	0
1.10891	1.62566	0
1.11316	1.62559	0
1.11740	1.62552	0
1.12165	1.62545	0
1.12590	1.62539	0
1.13015	1.62532	0
1.13439	1.62525	0
1.13864	1.62519	0
1.14289	1.62512	0
1.14714	1.62506	0
1.15138	1.62500	0
1.15563	1.62493	0
1.15988	1.62487	0
1.16413	1.62481	0
1.16837	1.62475	0
1.17262	1.62469	0
1.17687	1.62464	0
1.18112	1.62458	0
1.18536	1.62452	0
1.18961	1.62447	0
1.19386	1.62441	0
1.19811	1.62435	0
1.20235	1.62430	0
1.20660	1.62425	0
1.21085	1.62419	0
1.21510	1.62414	0
1.21934	1.62409	0
1.22359	1.62404	0
1.22784	1.62399	0
1.23209	1.62394	0
1.23633	1.62389	0
1.24058	1.62384	0
1.24483	1.62379	0
1.24907	1.62375	0
1.25332	1.62370	0
1.25757	1.62365	0
1.26182	1.62361	0
1.26606	1.62356	0
1.27031	1.62352	0
1.27456	1.62347	0
1.27881	1.62343	0
1.28305	1.62338	0
1.28730	1.62334	0
1.29155	1.62330	0
1.29580	1.62326	0
1.30004	1.62322	0
1.30429	1.62317	0
1.30854	1.62313	0
1.31279	1.62309	0
1.31703	1.62305	0
1.32128	1.62301	0
1.32553	1.62298	0
1.32978	1.62294	0
1.33402	1.62290	0
1.33827	1.62286	0
1.34252	1.62282	0
1.34677	1.62279	0
1.35101	1.62275	0
1.35526	1.62271	0
1.35951	1.62268	0
1.36376	1.62264	0
1.36800	1.62261	0
1.37225	1.62257	0
1.37650	1.62254	0
1.38075	1.62250	0
1.38499	1.62247	0
1.38924	1.62244	0
1.39349	1.62240	0
1.39774	1.62237	0
1.40198	1.62234	0
1.40623	1.62231	0
1.41048	1.62228	0
1.41473	1.62224	0
1.41897	1.62221	0
1.42322	1.62218	0
1.42747	1.62215	0
1.43172	1.62212	0
1.43596	1.62209	0
1.44021	1.62206	0
1.44446	1.62203	0
1.44871	1.62200	0
1.45295	1.62197	0
1.45720	1.62195	0
1.46145	1.62192	0
1.46570	1.62189	0
1.46994	1.62186	0
1.47419	1.62184	0
1.47844	1.62181	0
1.48269	1.62178	0
1.48693	1.62175	0
1.49118	1.62173	0
1.49543	1.62170	0
1.49967	1.62168	0
1.50392	1.62165	0
1.50817	1.62162	0
1.51242	1.62160	0
1.51666	1.62157	0
1.52091	1.62155	0
1.52516	1.62152	0
1.52941	1.62150	0
1.53365	1.62148	0
1.53790	1.62145	0
1.54215	1.62143	0
1.54640	1.62140	0
1.55064	1.62138	0
1.55489	1.62136	0
1.55914	1.62134	0
1.56339	1.62131	0
1.56763	1.62129	0
1.57188	1.62127	0
1.57613	1.62125	0
1.58038	1.62122	0
1.58462	1.62120	0
1.58887	1.62118	0
1.59312	1.62116	0
1.59737	1.62114	0
1.60161	1.62112	0
1.60586	1.62110	0
1.61011	1.62108	0
1.61436	1.62106	0
1.61860	1.62104	0
1.62285	1.62101	0
1.62710	1.62099	0
1.63135	1.62097	0
1.63559	1.62096	0
1.63984	1.62094	0
1.64409	1.62092	0
1.64834	1.62090	0
1.65258	1.62088	0
1.65683	1.62086	0
1.66108	1.62084	0
1.66533	1.62082	0
1.66957	1.62080	0
1.67382	1.62079	0
1.67807	1.62077	0
1.68232	1.62075	0
1.68656	1.62073	0
