Material: main / Tb3Ga5O12 / Schlarb
Optical constants. U. Schlarb, B. Sugg. Refractive index of terbium gallium garnet, Phys. Status Solidi B 182, K91–K93 (1994)
Comments: Single-crystal Tb3Ga5O12; Interferometric measurement; 20 °C.
Conditions: {"temperature": 293}
wavelength (um)	n
0.40466	2.0178
0.43583	2.0057
0.54607	1.9765
0.63300	1.9656
1.07981	1.9434
1.08445	1.9432
1.14091	1.9420
1.15228	1.9421
1.17668	1.9415
