Material: main / GaAs / Tatsuura
Optical constants. S. Tatsuura, T. Matsubara, H. Mitsu, Y. Sato, I. Iwasa, M. Tian, M. Furuki. Cadmium telluride bulk crystal as an ultrafast nonlinear optical switch. Appl. Phys. Lett 87, 251110 (2005)
Comments: GaAs[100]. 110 fs. Z-scan.
Conditions: {"n2_method": "Z-scan", "pulse_duration": "110e-15"}
wavelength (um)	n	2
1.55	2.93e-17
