Material: organic / C18H34O2 - oleic acid / McGinty
Optical constants. S. M. McGinty, M. K. Kapala, R. F. Niedziela. Mid-infrared complex refractive indices for oleic acid and optical properties of model oleic acid/water aerosols. Phys. Chem. Chem. Phys. 11, 7998-8004 (2009) (See Supplementary files for numerical data)
Comments: Aerosole. 298 K (25 Â°C).
Conditions: {"temperature": 298}
wavelength (um)	n	k
2.0003505	1.45240	0.00394
2.0049917	1.45338	0.00339
2.0096545	1.45356	0.00348
2.0143390	1.45354	0.00357
2.0190454	1.45374	0.00336
2.0237738	1.45371	0.00320
2.0285245	1.45392	0.00320
2.0332975	1.45406	0.00334
2.0380930	1.45408	0.00309
2.0429112	1.45396	0.00297
2.0477522	1.45414	0.00324
2.0526162	1.45412	0.00310
2.0575034	1.45417	0.00310
2.0624139	1.45428	0.00308
2.0673479	1.45422	0.00301
2.0723056	1.45430	0.00287
2.0772871	1.45427	0.00279
2.0822926	1.45437	0.00282
2.0873223	1.45428	0.00285
2.0923763	1.45433	0.00283
2.0974549	1.45456	0.00269
2.1025582	1.45462	0.00232
2.1076864	1.45440	0.00212
2.1128397	1.45433	0.00212
2.1180182	1.45423	0.00206
2.1232222	1.45393	0.00219
2.1284518	1.45397	0.00251
2.1337072	1.45402	0.00222
2.1389887	1.45384	0.00220
2.1442963	1.45385	0.00220
2.1496304	1.45366	0.00238
2.1549911	1.45374	0.00245
2.1603786	1.45358	0.00243
2.1657931	1.45363	0.00228
2.1712347	1.45362	0.00248
2.1767039	1.45366	0.00268
2.1822006	1.45368	0.00261
2.1877251	1.45375	0.00256
2.1932777	1.45374	0.00253
2.1988586	1.45372	0.00261
2.2044679	1.45374	0.00254
2.2101060	1.45373	0.00261
2.2157729	1.45358	0.00255
2.2214690	1.45347	0.00235
2.2271944	1.45340	0.00255
2.2329494	1.45360	0.00230
2.2387343	1.45341	0.00259
2.2445492	1.45338	0.00250
2.2503943	1.45330	0.00255
2.2562700	1.45325	0.00251
2.2621765	1.45328	0.00257
2.2681140	1.45306	0.00265
2.2740827	1.45319	0.00277
2.2800829	1.45296	0.00278
2.2861149	1.45298	0.00299
2.2921789	1.45301	0.00308
2.2982751	1.45301	0.00341
2.3044038	1.45325	0.00356
2.3105653	1.45375	0.00349
2.3167599	1.45381	0.00297
2.3229877	1.45362	0.00300
2.3292491	1.45355	0.00287
2.3355444	1.45350	0.00283
2.3418738	1.45319	0.00313
2.3482376	1.45353	0.00344
2.3546360	1.45372	0.00292
2.3610695	1.45339	0.00283
2.3675382	1.45338	0.00303
2.3740424	1.45343	0.00293
2.3805824	1.45341	0.00291
2.3871586	1.45347	0.00286
2.3937713	1.45336	0.00283
2.4004206	1.45358	0.00286
2.4071070	1.45349	0.00278
2.4138308	1.45343	0.00286
2.4205922	1.45334	0.00277
2.4273917	1.45342	0.00275
2.4342294	1.45326	0.00266
2.4411057	1.45325	0.00262
2.4480210	1.45322	0.00252
2.4549756	1.45301	0.00257
2.4619699	1.45315	0.00258
2.4690041	1.45297	0.00262
2.4760786	1.45315	0.00246
2.4831938	1.45284	0.00255
2.4903499	1.45290	0.00247
2.4975475	1.45290	0.00245
2.5047868	1.45281	0.00225
2.5120681	1.45280	0.00226
2.5193919	1.45261	0.00235
2.5267586	1.45254	0.00233
2.5341684	1.45249	0.00233
2.5416218	1.45250	0.00219
2.5491193	1.45223	0.00218
2.5566610	1.45219	0.00229
2.5642476	1.45213	0.00222
2.5718793	1.45216	0.00221
2.5795565	1.45200	0.00217
2.5872797	1.45188	0.00224
2.5950493	1.45223	0.00206
2.6028657	1.45166	0.00213
2.6107294	1.45141	0.00208
2.6186407	1.45130	0.00204
2.6266001	1.45129	0.00206
2.6346080	1.45124	0.00208
2.6426649	1.45121	0.00207
2.6507713	1.45107	0.00210
2.6589275	1.45092	0.00211
2.6671340	1.45086	0.00213
2.6753914	1.45060	0.00181
2.6837001	1.45048	0.00200
2.6920605	1.45040	0.00208
2.7004732	1.45026	0.00192
2.7089387	1.45022	0.00186
2.7174573	1.44980	0.00209
2.7260297	1.44956	0.00203
2.7346564	1.44948	0.00195
2.7433379	1.44908	0.00216
2.7520746	1.44908	0.00208
2.7608672	1.44894	0.00223
2.7697161	1.44877	0.00221
2.7786220	1.44851	0.00198
2.7875853	1.44833	0.00192
2.7966066	1.44813	0.00214
2.8056865	1.44779	0.00202
2.8148255	1.44762	0.00198
2.8240243	1.44708	0.00218
2.8332834	1.44696	0.00218
2.8426034	1.44666	0.00225
2.8519849	1.44646	0.00217
2.8614286	1.44610	0.00247
2.8709350	1.44564	0.00245
2.8805048	1.44531	0.00244
2.8901386	1.44486	0.00251
2.8998370	1.44467	0.00286
2.9096008	1.44440	0.00279
2.9194305	1.44362	0.00287
2.9293269	1.44311	0.00324
2.9392906	1.44268	0.00326
2.9493223	1.44183	0.00379
2.9594227	1.44169	0.00440
2.9695925	1.44120	0.00453
2.9798325	1.44113	0.00527
2.9901434	1.44097	0.00551
3.0005258	1.44024	0.00587
3.0109806	1.43984	0.00616
3.0215085	1.43965	0.00660
3.0321103	1.43909	0.00750
3.0427867	1.43857	0.00812
3.0535386	1.43865	0.00847
3.0643668	1.43848	0.00967
3.0752720	1.43832	0.00982
3.0862551	1.43821	0.01034
3.0973169	1.43776	0.01098
3.1084584	1.43762	0.01141
3.1196803	1.43726	0.01186
3.1309834	1.43697	0.01222
3.1423688	1.43674	0.01276
3.1538373	1.43642	0.01322
3.1653899	1.43648	0.01358
3.1770273	1.43525	0.01434
3.1887507	1.43460	0.01472
3.2005609	1.43447	0.01537
3.2124588	1.43396	0.01663
3.2244456	1.43385	0.01680
3.2365222	1.43288	0.01721
3.2486896	1.43166	0.01777
3.2609488	1.43085	0.01861
3.2733009	1.42956	0.01945
3.2857469	1.42800	0.02049
3.2982879	1.42553	0.02168
3.3109250	1.42165	0.02392
3.3236593	1.42121	0.03170
3.3364920	1.42430	0.02791
3.3494241	1.41478	0.02707
3.3624569	1.40239	0.03456
3.3755915	1.39508	0.05588
3.3888291	1.40116	0.06591
3.4021710	1.38544	0.09764
3.4156183	1.43252	0.15976
3.4291723	1.51436	0.11765
3.4428344	1.51069	0.07296
3.4566057	1.50124	0.05340
3.4704877	1.48515	0.04311
3.4844816	1.47290	0.05171
3.4985888	1.47117	0.09100
3.5128107	1.53624	0.06083
3.5271487	1.51794	0.02885
3.5416042	1.50675	0.02080
3.5561787	1.49932	0.01745
3.5708737	1.49385	0.01557
3.5856906	1.48976	0.01442
3.6006309	1.48706	0.01377
3.6156964	1.48426	0.01332
3.6308884	1.48204	0.01301
3.6462086	1.48039	0.01308
3.6616586	1.47917	0.01312
3.6772401	1.47825	0.01278
3.6929548	1.47663	0.01282
3.7088044	1.47577	0.01358
3.7247906	1.47550	0.01415
3.7409153	1.47577	0.01458
3.7571801	1.47615	0.01425
3.7735870	1.47636	0.01388
3.7901379	1.47623	0.01316
3.8068345	1.47624	0.01256
3.8236789	1.47606	0.01217
3.8406730	1.47567	0.01185
3.8578189	1.47551	0.01148
3.8751185	1.47548	0.01114
3.8925740	1.47546	0.01106
3.9101875	1.47569	0.01063
3.9279610	1.47569	0.00989
3.9458969	1.47594	0.00920
3.9639974	1.47559	0.00812
3.9822646	1.47528	0.00744
4.0007011	1.47477	0.00684
4.0193090	1.47422	0.00620
4.0380908	1.47369	0.00575
4.0570490	1.47318	0.00512
4.0761860	1.47299	0.00477
4.0955044	1.47206	0.00456
4.1150068	1.47171	0.00432
4.1346958	1.47124	0.00402
4.1545742	1.47095	0.00403
4.1746446	1.47032	0.00378
4.1949098	1.46993	0.00355
4.2153728	1.46954	0.00354
4.2360364	1.46992	0.00335
4.2569036	1.46878	0.00311
4.2779774	1.46834	0.00280
4.2992608	1.46769	0.00272
4.3207571	1.46788	0.00310
4.3424695	1.46746	0.00273
4.3644012	1.46713	0.00273
4.3865555	1.46660	0.00256
4.4089359	1.46644	0.00256
4.4315458	1.46609	0.00239
4.4543888	1.46572	0.00258
4.4774685	1.46547	0.00232
4.5007887	1.46527	0.00222
4.5243530	1.46473	0.00231
4.5481654	1.46429	0.00219
4.5722298	1.46414	0.00218
4.5965502	1.46394	0.00212
4.6211306	1.46363	0.00217
4.6459754	1.46328	0.00206
4.6710888	1.46299	0.00184
4.6964751	1.46281	0.00199
4.7221390	1.46237	0.00191
4.7480848	1.46215	0.00199
4.7743173	1.46162	0.00173
4.8008413	1.46131	0.00184
4.8276616	1.46092	0.00174
4.8547833	1.46058	0.00188
4.8822115	1.46007	0.00185
4.9099513	1.45970	0.00187
4.9380082	1.45943	0.00178
4.9663875	1.45893	0.00171
4.9950950	1.45834	0.00192
5.0241362	1.45799	0.00183
5.0535171	1.45739	0.00189
5.0832437	1.45703	0.00169
5.1133221	1.45662	0.00185
5.1437585	1.45592	0.00197
5.1745594	1.45528	0.00194
5.2057315	1.45469	0.00206
5.2372814	1.45387	0.00219
5.2692160	1.45327	0.00223
5.3015425	1.45228	0.00227
5.3342681	1.45133	0.00232
5.3674002	1.45026	0.00243
5.4009464	1.44929	0.00274
5.4349146	1.44734	0.00301
5.4693128	1.44548	0.00305
5.5041492	1.44408	0.00393
5.5394322	1.44255	0.00424
5.5751705	1.43998	0.00386
5.6113729	1.43562	0.00455
5.6480486	1.42780	0.00547
5.6852068	1.42101	0.00892
5.7228571	1.40986	0.01518
5.7610095	1.39439	0.02081
5.7996740	1.34119	0.06751
5.8388610	1.42908	0.23463
5.8785811	1.59002	0.09802
5.9188454	1.54079	0.03024
5.9596650	1.51502	0.01434
6.0010516	1.50055	0.01037
6.0430170	1.49614	0.00624
6.0855734	1.48764	0.00531
6.1287335	1.48335	0.00383
6.1725102	1.47927	0.00226
6.2169168	1.47597	0.00178
6.2619669	1.47331	0.00211
6.3076747	1.47115	0.00154
6.3540546	1.46906	0.00133
6.4011217	1.46729	0.00128
6.4488913	1.46427	0.00150
6.4973792	1.46192	0.00034
6.5466017	1.45966	0.00056
6.5965758	1.45545	0.00118
6.6473187	1.45159	0.00144
6.6988483	1.44796	0.00241
6.7511830	1.43781	0.00498
6.8043420	1.41512	0.03662
6.8583447	1.45621	0.04074
6.9132114	1.46043	0.03354
6.9689631	1.46256	0.03605
7.0256214	1.46788	0.03308
7.0832084	1.47996	0.04315
7.1417474	1.49310	0.01593
7.2012619	1.47673	0.00752
7.2617767	1.47139	0.01248
7.3233172	1.46824	0.00895
7.3859097	1.46187	0.01054
7.4495813	1.45993	0.01454
7.5143602	1.45618	0.01364
7.5802757	1.45350	0.02220
7.6473578	1.45296	0.02992
7.7156378	1.45999	0.03755
7.7851480	1.47021	0.04429
7.8559221	1.48072	0.03233
7.9279948	1.47757	0.03048
8.0014021	1.47887	0.03118
8.0761816	1.48553	0.02879
8.1523719	1.48476	0.02740
8.2300136	1.49053	0.02797
8.3091484	1.49450	0.01851
8.3898197	1.49269	0.01217
8.4720728	1.48821	0.00879
8.5559547	1.48638	0.00746
8.6415143	1.48367	0.00521
8.7288023	1.48191	0.00450
8.8178717	1.47917	0.00382
8.9087776	1.47711	0.00647
9.0015774	1.47821	0.00473
9.0963308	1.47572	0.00511
9.1931003	1.47627	0.00578
9.2919508	1.47589	0.00447
9.3929503	1.47375	0.00343
9.4961695	1.47242	0.00369
9.6016826	1.47082	0.00428
9.7095667	1.46971	0.00432
9.8199026	1.46803	0.00399
9.9327751	1.46600	0.00456
10.048272	1.46276	0.00566
10.166487	1.45877	0.00741
10.287517	1.45417	0.01485
10.411463	1.45721	0.02145
10.538432	1.45926	0.03212
10.668536	1.47371	0.03814
10.801893	1.48306	0.03093
10.938626	1.48703	0.02574
11.078864	1.49208	0.02052
11.222746	1.49019	0.01358
11.370414	1.48821	0.01035
11.522019	1.48820	0.00748
11.677722	1.48414	0.00590
11.837691	1.48216	0.00502
12.002103	1.48224	0.00623
12.171147	1.48328	0.00305
12.345020	1.47956	0.00118
12.523934	1.47930	0.00324
12.708109	1.47791	0.00194
12.897782	1.47250	0.00123
13.093203	1.47540	0.00379
13.294637	1.47453	0.00302
