Material: main / DyScO3 / Chernova
Optical constants. E. Chernova, C. Brooks, D. Chvostova, Z. Bryknar, A. Dejneka, M. Tyunina. Optical NIR-VIS-VUV constants of advanced substrates for thin-film devices. Opt. Mater. Express 7, 3844â€“3862 (2017) [Calculation script (Python)]
Comments: Single crystal Dysprosium scandate
wavelength (um)	n	k
1.4089e-01	2.0282e+00	1.5805e+00
1.4221e-01	2.0518e+00	1.5800e+00
1.4355e-01	2.0780e+00	1.5859e+00
1.4491e-01	2.1095e+00	1.5970e+00
1.4631e-01	2.1486e+00	1.6110e+00
1.4772e-01	2.1963e+00	1.6251e+00
1.4917e-01	2.2530e+00	1.6358e+00
1.5065e-01	2.3172e+00	1.6401e+00
1.5215e-01	2.3866e+00	1.6357e+00
1.5369e-01	2.4584e+00	1.6214e+00
1.5525e-01	2.5292e+00	1.5972e+00
1.5685e-01	2.5966e+00	1.5647e+00
1.5849e-01	2.6589e+00	1.5260e+00
1.6015e-01	2.7158e+00	1.4837e+00
1.6185e-01	2.7686e+00	1.4399e+00
1.6359e-01	2.8191e+00	1.3953e+00
1.6537e-01	2.8691e+00	1.3493e+00
1.6719e-01	2.9193e+00	1.3002e+00
1.6904e-01	2.9689e+00	1.2467e+00
1.7094e-01	3.0168e+00	1.1885e+00
1.7288e-01	3.0625e+00	1.1262e+00
1.7486e-01	3.1076e+00	1.0598e+00
1.7690e-01	3.1532e+00	9.8645e-01
1.7897e-01	3.1976e+00	9.0094e-01
1.8110e-01	3.2329e+00	7.9960e-01
1.8328e-01	3.2483e+00	6.8705e-01
1.8552e-01	3.2406e+00	5.7724e-01
1.8780e-01	3.2225e+00	4.7919e-01
1.9015e-01	3.2049e+00	3.8138e-01
1.9255e-01	3.1738e+00	2.7017e-01
1.9502e-01	3.1080e+00	1.5997e-01
1.9755e-01	3.0140e+00	7.8437e-02
2.0014e-01	2.9167e+00	3.4019e-02
2.0281e-01	2.8328e+00	1.4478e-02
2.0555e-01	2.7646e+00	6.5308e-03
2.0836e-01	2.7083e+00	3.1251e-03
2.1125e-01	2.6606e+00	1.5590e-03
2.1422e-01	2.6192e+00	8.0277e-04
2.1728e-01	2.5826e+00	4.2196e-04
2.2042e-01	2.5499e+00	2.2540e-04
2.2366e-01	2.5202e+00	1.2113e-04
2.2699e-01	2.4932e+00	6.5628e-05
2.3043e-01	2.4682e+00	3.5610e-05
2.3397e-01	2.4452e+00	1.9454e-05
2.3762e-01	2.4238e+00	1.0659e-05
2.4139e-01	2.4039e+00	5.8815e-06
2.4527e-01	2.3852e+00	3.2612e-06
2.4929e-01	2.3677e+00	1.8184e-06
2.5344e-01	2.3512e+00	1.0181e-06
2.5773e-01	2.3356e+00	5.7091e-07
2.6216e-01	2.3209e+00	3.2053e-07
2.6675e-01	2.3070e+00	1.7934e-07
2.7151e-01	2.2937e+00	1.0015e-07
2.7644e-01	2.2812e+00	5.5486e-08
2.8155e-01	2.2692e+00	3.0619e-08
2.8685e-01	2.2579e+00	1.6724e-08
2.9236e-01	2.2470e+00	9.0734e-09
2.9808e-01	2.2367e+00	4.8706e-09
3.0403e-01	2.2268e+00	2.5921e-09
3.1023e-01	2.2174e+00	1.3654e-09
3.1668e-01	2.2084e+00	7.1191e-10
3.2340e-01	2.1997e+00	3.6771e-10
3.3042e-01	2.1915e+00	1.8775e-10
3.3775e-01	2.1835e+00	9.5068e-11
3.4541e-01	2.1760e+00	4.7518e-11
3.5342e-01	2.1687e+00	2.3587e-11
3.6182e-01	2.1617e+00	1.1549e-11
3.7063e-01	2.1550e+00	5.6156e-12
3.7987e-01	2.1486e+00	2.6950e-12
3.8959e-01	2.1425e+00	1.2828e-12
3.9982e-01	2.1366e+00	6.0353e-13
4.1060e-01	2.1309e+00	2.8120e-13
4.2198e-01	2.1255e+00	1.2970e-13
4.3400e-01	2.1203e+00	5.9145e-14
4.4673e-01	2.1153e+00	2.6745e-14
4.6023e-01	2.1105e+00	1.1937e-14
4.7458e-01	2.1060e+00	5.2925e-15
4.8984e-01	2.1016e+00	2.3117e-15
5.0612e-01	2.0974e+00	1.0050e-15
5.2352e-01	2.0934e+00	4.3040e-16
5.4216e-01	2.0895e+00	1.8314e-16
5.6217e-01	2.0859e+00	7.6906e-17
5.8372e-01	2.0824e+00	3.2026e-17
6.0698e-01	2.0791e+00	1.3188e-17
6.3218e-01	2.0759e+00	5.3740e-18
6.5956e-01	2.0729e+00	2.1703e-18
6.8942e-01	2.0700e+00	8.6534e-19
7.2211e-01	2.0673e+00	3.4274e-19
7.5806e-01	2.0647e+00	1.3371e-19
7.9777e-01	2.0623e+00	5.1944e-20
8.4187e-01	2.0600e+00	1.9848e-20
8.9113e-01	2.0578e+00	7.5547e-21
9.4652e-01	2.0558e+00	2.8314e-21
1.0092e+00	2.0539e+00	1.0544e-21
1.0809e+00	2.0521e+00	3.8762e-22
1.1635e+00	2.0505e+00	1.4121e-22
1.2597e+00	2.0490e+00	5.0928e-23
1.3733e+00	2.0476e+00	1.8148e-23
1.5094e+00	2.0464e+00	6.4211e-24
1.6755e+00	2.0452e+00	2.2382e-24
