Material: main / As2S3 / Slavich-beta
Optical constants. A. S. Slavich, G. A. Ermolaev, M. K. Tatmyshevskiy, A. N. Toksumakov, O. G. Matveeva, D. V. Grudinin, K. V. Voronin, A. Mazitov, K. V. Kravtsov, A. V. Syuy, D. M. Tsymbarenko, M. S. Mironov, S. M. Novikov, I. Kruglov, D. A. Ghazaryan, A. A. Vyshnevyy, A. V. Arsenin, V. S. Volkov, K. S Novoselov. Exploring van der Waals materials with high anisotropy: geometrical and optical approaches. Light Sci. Appl., 13, 68 (2024) (Numerical data kindly provided by Georgy Ermolaev)
Comments: Î²-axis.
wavelength (um)	n
0.500	3.00200
0.502	2.99791
0.504	2.99388
0.506	2.98989
0.508	2.98594
0.510	2.98205
0.512	2.97820
0.514	2.97439
0.516	2.97063
0.518	2.96691
0.520	2.96324
0.522	2.95960
0.524	2.95601
0.526	2.95246
0.528	2.94895
0.530	2.94548
0.532	2.94205
0.534	2.93866
0.536	2.93530
0.538	2.93198
0.540	2.92870
0.542	2.92546
0.544	2.92225
0.546	2.91907
0.548	2.91593
0.550	2.91283
0.552	2.90976
0.554	2.90672
0.556	2.90371
0.558	2.90074
0.560	2.89780
0.562	2.89489
0.564	2.89201
0.566	2.88916
0.568	2.88634
0.570	2.88355
0.572	2.88079
0.574	2.87806
0.576	2.87536
0.578	2.87268
0.580	2.87004
0.582	2.86742
0.584	2.86482
0.586	2.86226
0.588	2.85972
0.590	2.85720
0.592	2.85471
0.594	2.85225
0.596	2.84981
0.598	2.84740
0.600	2.84501
0.602	2.84264
0.604	2.84030
0.606	2.83798
0.608	2.83568
0.610	2.83340
0.612	2.83115
0.614	2.82892
0.616	2.82671
0.618	2.82452
0.620	2.82236
0.622	2.82021
0.624	2.81809
0.626	2.81598
0.628	2.81390
0.630	2.81183
0.632	2.80979
0.634	2.80776
0.636	2.80576
0.638	2.80377
0.640	2.80180
0.642	2.79985
0.644	2.79792
0.646	2.79600
0.648	2.79410
0.650	2.79222
0.652	2.79036
0.654	2.78852
0.656	2.78669
0.658	2.78488
0.660	2.78308
0.662	2.78130
0.664	2.77954
0.666	2.77779
0.668	2.77606
0.670	2.77434
0.672	2.77264
0.674	2.77096
0.676	2.76929
0.678	2.76763
0.680	2.76599
0.682	2.76436
0.684	2.76275
0.686	2.76115
0.688	2.75957
0.690	2.75800
0.692	2.75644
0.694	2.75490
0.696	2.75336
0.698	2.75185
0.700	2.75034
0.702	2.74885
0.704	2.74737
0.706	2.74591
0.708	2.74445
0.710	2.74301
0.712	2.74158
0.714	2.74016
0.716	2.73876
0.718	2.73736
0.720	2.73598
0.722	2.73461
0.724	2.73325
0.726	2.73190
0.728	2.73057
0.730	2.72924
0.732	2.72792
0.734	2.72662
0.736	2.72533
0.738	2.72404
0.740	2.72277
0.742	2.72151
0.744	2.72025
0.746	2.71901
0.748	2.71778
0.750	2.71656
0.752	2.71534
0.754	2.71414
0.756	2.71295
0.758	2.71176
0.760	2.71059
0.762	2.70942
0.764	2.70826
0.766	2.70712
0.768	2.70598
0.770	2.70485
0.772	2.70373
0.774	2.70261
0.776	2.70151
0.778	2.70041
0.780	2.69933
0.782	2.69825
0.784	2.69718
0.786	2.69612
0.788	2.69506
0.790	2.69402
0.792	2.69298
0.794	2.69195
0.796	2.69093
0.798	2.68991
0.800	2.68890
0.802	2.68790
0.804	2.68691
0.806	2.68593
0.808	2.68495
0.810	2.68398
0.812	2.68301
0.814	2.68206
0.816	2.68111
0.818	2.68017
0.820	2.67923
0.822	2.67830
0.824	2.67738
0.826	2.67647
0.828	2.67556
0.830	2.67466
0.832	2.67376
0.834	2.67287
0.836	2.67199
0.838	2.67111
0.840	2.67024
0.842	2.66938
0.844	2.66852
0.846	2.66767
0.848	2.66683
0.850	2.66599
0.852	2.66515
0.854	2.66432
0.856	2.66350
0.858	2.66269
0.860	2.66187
0.862	2.66107
0.864	2.66027
0.866	2.65948
0.868	2.65869
0.870	2.65791
0.872	2.65713
0.874	2.65636
0.876	2.65559
0.878	2.65483
0.880	2.65407
0.882	2.65332
0.884	2.65257
0.886	2.65183
0.888	2.65110
0.890	2.65036
0.892	2.64964
0.894	2.64892
0.896	2.64820
0.898	2.64749
0.900	2.64678
