Material: organic / C28H31ClN2O3 - Rhodamine 6G / Seckin
Optical constants. S. Seçkin, P. Singh, A. Jaiswal, T. A. F. König. Super-radiant SERS enhancement by plasmonic particle gratings. ACS Appl. Mater. Interfaces 15, 43124–43134 (2023) (Numerical data kindly provided by Dr. Tobias A. F. König)
Comments: Rhodamine 6G thin film spin-coated on Si substrate
Conditions: {"substrate": "Si"}
wavelength (um)	n	k
0.1930	1.546671	0.336272
0.1960	1.548508	0.340815
0.1990	1.552158	0.344497
0.2020	1.557171	0.347384
0.2050	1.563225	0.349524
0.2080	1.570080	0.350952
0.2110	1.577551	0.351692
0.2140	1.585494	0.351764
0.2170	1.593789	0.351184
0.2200	1.602337	0.349965
0.2230	1.611050	0.348120
0.2260	1.619855	0.345661
0.2290	1.628685	0.342598
0.2320	1.637478	0.338943
0.2350	1.646179	0.334710
0.2380	1.654735	0.329910
0.2410	1.663099	0.324558
0.2440	1.671223	0.318670
0.2470	1.679063	0.312261
0.2500	1.686576	0.305349
0.2530	1.693722	0.297954
0.2560	1.700460	0.290097
0.2590	1.706752	0.281800
0.2620	1.712560	0.273087
0.2650	1.717847	0.263984
0.2680	1.722577	0.254520
0.2710	1.726714	0.244723
0.2740	1.730222	0.234626
0.2770	1.733067	0.224262
0.2800	1.735213	0.213667
0.2830	1.736624	0.202880
0.2860	1.737263	0.191942
0.2890	1.737092	0.180896
0.2920	1.736070	0.169787
0.2950	1.734147	0.158667
0.2980	1.731269	0.147590
0.3010	1.727363	0.136621
0.3040	1.722336	0.125845
0.3070	1.716070	0.115386
0.3100	1.708422	0.105436
0.3130	1.699255	0.096291
0.3160	1.688492	0.088391
0.3190	1.676207	0.082319
0.3220	1.662743	0.078749
0.3250	1.648801	0.078309
0.3280	1.635458	0.081371
0.3310	1.624046	0.087820
0.3340	1.615881	0.096897
0.3370	1.611902	0.107221
0.3400	1.612349	0.117031
0.3430	1.616634	0.124604
0.3460	1.623466	0.128666
0.3490	1.631185	0.128670
0.3520	1.638161	0.124841
0.3550	1.643151	0.118035
0.3580	1.645653	0.109428
0.3610	1.645508	0.099601
0.3640	1.642386	0.089574
0.3670	1.636620	0.080334
0.3700	1.628812	0.072529
0.3730	1.619649	0.066484
0.3760	1.609775	0.062250
0.3790	1.599716	0.059681
0.3820	1.589849	0.058519
0.3850	1.580403	0.058454
0.3880	1.571483	0.059184
0.3910	1.563094	0.060440
0.3940	1.555178	0.062002
0.3970	1.547637	0.063700
0.4000	1.540349	0.065414
0.4030	1.533181	0.067060
0.4060	1.525998	0.068589
0.4090	1.518662	0.069974
0.4120	1.511028	0.071215
0.4150	1.502948	0.072329
0.4180	1.494266	0.073359
0.4210	1.484815	0.074375
0.4240	1.474418	0.075481
0.4270	1.462890	0.076826
0.4300	1.450045	0.078611
0.4330	1.435702	0.081105
0.4360	1.419706	0.084652
0.4390	1.401948	0.089683
0.4420	1.382389	0.096718
0.4450	1.361104	0.106369
0.4480	1.338321	0.119319
0.4510	1.314474	0.136299
0.4540	1.290249	0.158024
0.4570	1.266628	0.185112
0.4600	1.244898	0.217952
0.4630	1.226594	0.256555
0.4660	1.213364	0.300404
0.4690	1.206724	0.348381
0.4720	1.207794	0.398835
0.4750	1.217071	0.449789
0.4780	1.234367	0.499242
0.4810	1.258891	0.545433
0.4840	1.289433	0.587013
0.4870	1.324555	0.623098
0.4900	1.362743	0.653263
0.4930	1.402527	0.677493
0.4960	1.442556	0.696144
0.4990	1.481677	0.709897
0.5020	1.519005	0.719713
0.5050	1.554002	0.726769
0.5080	1.586560	0.732363
0.5110	1.617059	0.737767
0.5140	1.646379	0.744054
0.5170	1.675829	0.751880
0.5200	1.706983	0.761303
0.5230	1.741410	0.771669
0.5260	1.780360	0.781637
0.5290	1.824480	0.789354
0.5320	1.873640	0.792750
0.5350	1.926910	0.789881
0.5380	1.982697	0.779219
0.5410	2.038965	0.759856
0.5440	2.093501	0.731583
0.5470	2.144165	0.694869
0.5500	2.189085	0.650763
0.5530	2.226803	0.600747
0.5560	2.256349	0.546577
0.5590	2.277266	0.490117
0.5620	2.289578	0.433195
0.5650	2.293739	0.377479
0.5680	2.290538	0.324389
0.5710	2.281003	0.275042
0.5740	2.266307	0.230222
0.5770	2.247664	0.190390
0.5800	2.226254	0.155710
0.5830	2.203154	0.126091
0.5860	2.179296	0.101246
0.5890	2.155444	0.080748
0.5920	2.132182	0.064089
0.5950	2.109927	0.050727
0.5980	2.088945	0.040129
0.6010	2.069379	0.031799
0.6040	2.051275	0.025292
0.6070	2.034610	0.020231
0.6100	2.019312	0.016299
0.6130	2.005286	0.013241
0.6160	1.992420	0.010854
0.6190	1.980601	0.008981
0.6220	1.969722	0.007502
0.6250	1.959681	0.006324
0.6280	1.950388	0.005379
0.6310	1.941761	0.004614
0.6340	1.933729	0.003989
0.6370	1.926231	0.003476
0.6400	1.919212	0.003050
0.6430	1.912626	0.002695
0.6460	1.906430	0.002397
0.6490	1.900589	0.002144
0.6520	1.895071	0.001929
0.6550	1.889848	0.001745
0.6580	1.884896	0.001587
0.6610	1.880191	0.001449
0.6640	1.875716	0.001328
0.6670	1.871452	0.001222
0.6700	1.867383	0.001128
0.6730	1.863495	0.001045
0.6760	1.859775	0.000970
0.6790	1.856212	0.000902
0.6820	1.852795	0.000841
0.6850	1.849516	0.000785
0.6880	1.846364	0.000734
0.6910	1.843332	0.000688
0.6940	1.840413	0.000645
0.6970	1.837600	0.000605
0.7000	1.834888	0.000568
0.7030	1.832269	0.000534
0.7060	1.829740	0.000502
0.7090	1.827296	0.000472
0.7120	1.824931	0.000444
0.7150	1.822643	0.000418
0.7180	1.820427	0.000394
0.7210	1.818279	0.000371
0.7240	1.816196	0.000350
0.7270	1.814176	0.000330
0.7300	1.812215	0.000311
0.7330	1.810310	0.000293
0.7360	1.808460	0.000277
0.7390	1.806661	0.000261
0.7420	1.804912	0.000246
0.7450	1.803210	0.000233
0.7480	1.801553	0.000220
0.7510	1.799940	0.000207
0.7540	1.798369	0.000196
0.7570	1.796838	0.000185
0.7600	1.795345	0.000175
0.7630	1.793889	0.000165
0.7660	1.792469	0.000156
0.7690	1.791083	0.000147
0.7720	1.789730	0.000139
0.7750	1.788409	0.000132
0.7780	1.787119	0.000125
0.7810	1.785858	0.000118
0.7840	1.784626	0.000111
0.7870	1.783421	0.000105
0.7900	1.782243	0.000100
0.7930	1.781091	0.000094
0.7960	1.779963	0.000089
0.7990	1.778860	0.000085
0.8020	1.777779	0.000080
0.8050	1.776721	0.000076
0.8080	1.775685	0.000072
0.8110	1.774670	0.000068
0.8140	1.773676	0.000065
0.8170	1.772701	0.000061
0.8200	1.771746	0.000058
0.8230	1.770809	0.000055
0.8260	1.769890	0.000052
0.8290	1.768989	0.000049
0.8320	1.768104	0.000047
0.8350	1.767237	0.000044
0.8380	1.766385	0.000042
0.8410	1.765549	0.000040
0.8440	1.764728	0.000038
0.8470	1.763922	0.000036
0.8500	1.763130	0.000034
0.8530	1.762352	0.000033
0.8560	1.761588	0.000031
0.8590	1.760837	0.000029
0.8620	1.760099	0.000028
0.8650	1.759373	0.000027
0.8680	1.758659	0.000025
0.8710	1.757958	0.000024
0.8740	1.757268	0.000023
0.8770	1.756589	0.000022
0.8800	1.755921	0.000021
0.8830	1.755264	0.000020
0.8860	1.754618	0.000019
0.8890	1.753981	0.000018
0.8920	1.753355	0.000017
0.8950	1.752738	0.000016
0.8980	1.752131	0.000015
0.9010	1.751534	0.000015
0.9040	1.750945	0.000014
0.9070	1.750365	0.000013
0.9100	1.749793	0.000013
0.9130	1.749230	0.000012
0.9160	1.748676	0.000011
0.9190	1.748129	0.000011
0.9220	1.747590	0.000010
0.9250	1.747059	0.000010
0.9280	1.746536	0.000010
0.9310	1.746019	0.000009
0.9340	1.745510	0.000009
0.9370	1.745009	0.000008
0.9400	1.744514	0.000008
0.9430	1.744025	0.000008
0.9460	1.743544	0.000007
0.9490	1.743068	0.000007
0.9520	1.742599	0.000007
0.9550	1.742137	0.000006
0.9580	1.741680	0.000006
0.9610	1.741229	0.000006
0.9640	1.740785	0.000005
0.9670	1.740345	0.000005
0.9700	1.739912	0.000005
0.9730	1.739484	0.000005
0.9760	1.739061	0.000005
0.9790	1.738644	0.000004
0.9820	1.738232	0.000004
0.9850	1.737824	0.000004
0.9880	1.737422	0.000004
0.9910	1.737025	0.000004
0.9940	1.736632	0.000004
0.9970	1.736244	0.000003
1.0000	1.735861	0.000003
1.0075	1.734922	0.000003
1.0150	1.734011	0.000003
1.0225	1.733124	0.000002
1.0300	1.732263	0.000002
1.0375	1.731425	0.000002
1.0450	1.730609	0.000002
1.0525	1.729815	0.000002
1.0600	1.729042	0.000001
1.0675	1.728288	0.000001
1.0750	1.727553	0.000001
1.0825	1.726837	0.000001
1.0900	1.726137	0.000001
1.0975	1.725455	0.000001
1.1050	1.724788	0.000001
1.1125	1.724137	0.000001
1.1200	1.723501	0.000001
1.1275	1.722879	0.000001
1.1350	1.722271	0.000001
1.1425	1.721676	0.000000
1.1500	1.721094	0.000000
1.1575	1.720524	0.000000
1.1650	1.719966	0.000000
1.1725	1.719419	0.000000
1.1800	1.718883	0.000000
1.1875	1.718358	0.000000
1.1950	1.717843	0.000000
1.2025	1.717338	0.000000
1.2100	1.716843	0.000000
1.2175	1.716357	0.000000
1.2250	1.715879	0.000000
1.2325	1.715411	0.000000
1.2400	1.714951	0.000000
1.2475	1.714498	0.000000
1.2550	1.714054	0.000000
1.2625	1.713617	0.000000
1.2700	1.713187	0.000000
1.2775	1.712765	0.000000
1.2850	1.712349	0.000000
1.2925	1.711940	0.000000
1.3000	1.711538	0.000000
1.3075	1.711141	0.000000
1.3150	1.710751	0.000000
1.3225	1.710366	0.000000
1.3300	1.709988	0.000000
1.3375	1.709614	0.000000
1.3450	1.709246	0.000000
1.3525	1.708883	0.000000
1.3600	1.708526	0.000000
1.3675	1.708173	0.000000
1.3750	1.707824	0.000000
1.3825	1.707481	0.000000
1.3900	1.707142	0.000000
1.3975	1.706807	0.000000
1.4050	1.706476	0.000000
1.4125	1.706149	0.000000
1.4200	1.705827	0.000000
1.4275	1.705508	0.000000
1.4350	1.705193	0.000000
1.4425	1.704882	0.000000
1.4500	1.704574	0.000000
1.4575	1.704270	0.000000
1.4650	1.703969	0.000000
1.4725	1.703671	0.000000
1.4800	1.703376	0.000000
1.4875	1.703084	0.000000
1.4950	1.702796	0.000000
1.5025	1.702510	0.000000
1.5100	1.702227	0.000000
1.5175	1.701947	0.000000
1.5250	1.701670	0.000000
1.5325	1.701395	0.000000
1.5400	1.701123	0.000000
1.5475	1.700853	0.000000
1.5550	1.700585	0.000000
1.5625	1.700320	0.000000
1.5700	1.700058	0.000000
1.5775	1.699797	0.000000
1.5850	1.699538	0.000000
1.5925	1.699282	0.000000
1.6000	1.699028	0.000000
1.6075	1.698775	0.000000
1.6150	1.698525	0.000000
1.6225	1.698277	0.000000
1.6300	1.698030	0.000000
1.6375	1.697785	0.000000
1.6450	1.697542	0.000000
1.6525	1.697300	0.000000
1.6600	1.697060	0.000000
1.6675	1.696822	0.000000
1.6750	1.696585	0.000000
1.6825	1.696350	0.000000
1.6900	1.696116	0.000000
