Material: specs / crystran / CaCO3-o
Optical constants. Crystran Ltd. The Crystran handbook of infra-red and ultra-violet optical materials (5th edition, 2023) See also Crystran CaCO3 online data sheet
Comments: Calcite, or Iceland Spar, is a strongly birefringent material and is used for polarisers and retardation plates. Calcite is often mined naturally. Crystran Ltd has a stock of small calcite "rhombs" of good clear optical quality. Calcite cuts and polishes well. CLEAVEAGE PLANE: There can be confusion in the definition of the cleavage plane in calcite. Conventionally this has always been referred to as {10-11} but recent papers on AFM studies use {10-14}. Calcite cleaves between the bonds of the CO3 groups (in the CO3 layer). The CO3 group are offset relative to each other and inclined to the c axis giving 3 cleavage directions defining a rhomb. Following the {10-11} nomenclature the unit cell requires Â¼ the length of the c axis as measured from XRD (on a dimension 4 times longer). The correct Miller indices are {10-14} but the conventional {10-11} is often used in order not to confuse and for easier comparison. (1) REFERENCES: 1. Private Communication. J.A.Elliott. Dept. Materials Science, University of Cambridge. 2011 2. Crystallography - LINK to: Practical Crystal Measurement. A.E.H.Tutton, Vol2, page 1329 3. Linear Thermal Expansion of Calcite - Link to: Mineral Society of America, Linear Thermal Expansion of Calcite. WEBLINKS: http://webmineral.com/data/Calcite.shtml - Has further information regarding Calcite. Optical data are for ordinary ray (o).
Conditions: {"orientation": "o"}
Properties: {"density": [{"value": 2710}], "thermal_dispersion": [{"type": "constant", "wavelength": 0.5, "direction": "para", "value": "3e-06"}, {"type": "constant", "wavelength": 0.5, "direction": "perp", "value": 1.3e-05}], "thermal_expansion": [{"temperature": 273, "direction": "para", "value": "25e-06"}, {"temperature": 273, "direction": "perp", "value": -5.8e-06}], "hardness": [{"type": "Knoop", "value": "1.52e9"}, {"type": "Mohs", "value": 3}], "melting_point": [{"value": 1098}], "thermal_conductivity": [{"temperature": 273, "direction": "para", "value": 5.526}, {"temperature": 273, "direction": "perp", "value": 5.526}], "youngs_modulus": [{"direction": "para", "value": "88.19e9"}, {"direction": "perp", "value": "72.35e9"}], "solubility": [{"value": 0.014}]}
wavelength (um)	n
0.20	1.9028
0.30	1.7196
0.41	1.6801
0.51	1.6653
0.64	1.6550
0.71	1.6521
0.80	1.6487
0.91	1.6458
1.04	1.6428
1.50	1.6346
1.91	1.627
2.10	1.622
wavelength (um)	k
0.190	2.72E-05
0.194	3.12E-05
0.202	2.06E-05
0.206	7.87E-06
0.210	2.93E-06
0.214	1.18E-06
0.218	7.16E-07
0.222	6.15E-07
0.226	5.55E-07
0.230	5.23E-07
0.234	4.98E-07
0.238	4.77E-07
0.242	4.61E-07
0.246	4.47E-07
0.250	4.32E-07
0.254	4.17E-07
0.258	4.01E-07
0.262	3.83E-07
0.266	3.63E-07
0.270	3.40E-07
0.274	3.17E-07
0.278	2.93E-07
0.282	2.70E-07
0.286	2.48E-07
0.290	2.29E-07
0.294	2.12E-07
0.298	2.00E-07
0.302	1.92E-07
0.306	1.84E-07
0.310	1.73E-07
0.314	1.62E-07
0.318	1.51E-07
0.322	1.40E-07
0.326	1.28E-07
0.330	1.14E-07
0.334	9.75E-08
0.338	8.97E-08
0.342	1.44E-07
0.346	1.23E-07
0.350	1.03E-07
0.354	9.05E-08
0.358	7.79E-08
0.362	6.00E-08
0.366	4.25E-08
0.370	3.42E-08
0.374	3.08E-08
0.378	2.15E-08
0.382	0.00E+00
0.386	0.00E+00
0.390	0.00E+00
0.394	0.00E+00
0.398	0.00E+00
0.402	0.00E+00
0.406	0.00E+00
0.410	0.00E+00
0.414	0.00E+00
0.418	0.00E+00
0.422	0.00E+00
0.426	0.00E+00
0.430	0.00E+00
0.434	0.00E+00
0.438	0.00E+00
0.442	0.00E+00
0.446	0.00E+00
0.450	0.00E+00
0.454	0.00E+00
0.458	0.00E+00
0.462	0.00E+00
0.466	0.00E+00
0.470	0.00E+00
0.474	0.00E+00
0.478	0.00E+00
0.482	0.00E+00
0.486	0.00E+00
0.490	0.00E+00
0.494	0.00E+00
0.498	0.00E+00
0.502	0.00E+00
0.506	0.00E+00
0.510	0.00E+00
0.514	0.00E+00
0.518	0.00E+00
0.522	0.00E+00
0.526	0.00E+00
0.530	0.00E+00
0.534	0.00E+00
0.538	0.00E+00
0.542	0.00E+00
0.546	0.00E+00
0.550	0.00E+00
0.554	0.00E+00
0.558	0.00E+00
0.562	0.00E+00
0.566	0.00E+00
0.570	0.00E+00
0.574	0.00E+00
0.578	0.00E+00
0.582	0.00E+00
0.586	0.00E+00
0.590	0.00E+00
0.594	0.00E+00
0.598	0.00E+00
0.602	0.00E+00
0.606	0.00E+00
0.610	0.00E+00
0.614	0.00E+00
0.618	0.00E+00
0.622	0.00E+00
0.626	0.00E+00
0.630	0.00E+00
0.634	0.00E+00
0.638	0.00E+00
0.642	0.00E+00
0.646	0.00E+00
0.650	0.00E+00
0.654	0.00E+00
0.658	0.00E+00
0.662	0.00E+00
0.666	0.00E+00
0.670	0.00E+00
0.674	0.00E+00
0.678	0.00E+00
0.682	0.00E+00
0.686	0.00E+00
0.690	0.00E+00
0.694	0.00E+00
0.698	0.00E+00
0.702	0.00E+00
0.706	0.00E+00
0.710	0.00E+00
0.714	0.00E+00
0.718	0.00E+00
0.722	0.00E+00
0.726	0.00E+00
0.730	0.00E+00
0.734	0.00E+00
0.738	0.00E+00
0.742	0.00E+00
0.746	0.00E+00
0.750	0.00E+00
0.754	0.00E+00
0.758	0.00E+00
0.762	0.00E+00
0.766	0.00E+00
0.770	0.00E+00
0.774	0.00E+00
0.778	0.00E+00
0.782	0.00E+00
0.786	0.00E+00
0.790	0.00E+00
0.794	0.00E+00
0.798	0.00E+00
0.802	0.00E+00
0.806	0.00E+00
0.810	0.00E+00
0.814	0.00E+00
0.818	0.00E+00
0.822	0.00E+00
0.826	0.00E+00
0.830	0.00E+00
0.834	0.00E+00
0.838	0.00E+00
0.842	0.00E+00
0.846	0.00E+00
0.850	0.00E+00
0.854	0.00E+00
0.858	0.00E+00
0.862	0.00E+00
0.866	0.00E+00
0.870	0.00E+00
0.874	0.00E+00
0.878	0.00E+00
0.882	0.00E+00
0.886	0.00E+00
0.890	0.00E+00
0.894	0.00E+00
0.898	0.00E+00
0.902	0.00E+00
0.906	0.00E+00
0.910	0.00E+00
0.914	0.00E+00
0.918	0.00E+00
0.922	0.00E+00
0.926	0.00E+00
0.930	0.00E+00
0.934	0.00E+00
0.938	0.00E+00
0.942	0.00E+00
0.946	0.00E+00
0.950	0.00E+00
0.954	0.00E+00
0.958	0.00E+00
0.962	0.00E+00
0.966	0.00E+00
0.970	0.00E+00
0.974	0.00E+00
0.978	0.00E+00
0.982	0.00E+00
0.986	0.00E+00
0.990	0.00E+00
0.994	0.00E+00
0.998	0.00E+00
1.002	0.00E+00
1.006	0.00E+00
1.010	0.00E+00
1.014	0.00E+00
1.018	0.00E+00
1.022	0.00E+00
1.026	0.00E+00
1.030	0.00E+00
1.034	0.00E+00
1.038	0.00E+00
1.042	0.00E+00
1.046	0.00E+00
1.050	0.00E+00
1.054	0.00E+00
1.058	0.00E+00
1.062	0.00E+00
1.066	0.00E+00
1.070	0.00E+00
1.074	0.00E+00
1.078	0.00E+00
1.082	0.00E+00
1.086	0.00E+00
1.090	0.00E+00
1.094	0.00E+00
1.098	0.00E+00
1.510	1.88E-06
1.550	2.69E-06
1.590	2.84E-06
1.630	3.14E-06
1.670	3.17E-06
1.710	3.24E-06
1.750	3.62E-06
1.790	3.39E-06
1.830	3.85E-06
1.870	5.72E-06
1.910	3.58E-06
1.950	3.95E-06
1.990	6.35E-06
2.030	3.71E-06
2.070	3.48E-06
2.110	3.35E-06
2.150	6.52E-06
2.190	5.50E-06
2.230	8.76E-06
2.270	2.15E-05
2.310	4.48E-05
2.350	6.64E-05
2.390	1.11E-05
2.430	1.73E-05
2.470	5.60E-05
2.510	9.47E-05
2.550	1.11E-04
2.590	1.87E-05
2.630	9.68E-06
2.670	1.03E-05
2.710	2.52E-05
2.750	4.72E-05
2.790	1.62E-04
2.830	3.56E-05
2.870	1.44E-05
2.910	1.13E-05
2.950	1.32E-05
2.990	1.61E-05
3.030	3.96E-05
3.070	8.06E-05
3.110	1.72E-04
3.150	1.62E-04
3.190	1.04E-04
3.230	1.46E-04
3.270	2.12E-04
3.310	3.17E-04
3.350	3.51E-04
3.390	3.59E-04
3.430	3.65E-04
3.470	3.62E-04
3.510	3.70E-04
3.550	3.43E-04
3.590	2.87E-04
3.630	1.96E-04
3.670	1.73E-04
3.710	1.81E-04
3.750	2.42E-04
3.790	3.52E-04
3.830	3.96E-04
3.870	3.99E-04
3.910	3.99E-04
3.950	4.07E-04
3.990	4.14E-04
4.030	4.17E-04
4.070	4.15E-04
4.110	3.84E-04
4.150	2.88E-04
4.190	2.27E-04
4.230	1.90E-04
4.270	1.64E-04
4.310	1.67E-04
4.350	1.69E-04
4.390	1.41E-04
4.430	1.71E-04
4.470	2.32E-04
4.510	3.09E-04
4.550	3.22E-04
4.590	3.31E-04
4.630	4.20E-04
4.670	4.74E-04
4.710	4.48E-04
4.750	2.15E-04
4.790	1.68E-04
4.830	1.68E-04
4.870	1.76E-04
4.910	1.86E-04
4.950	1.89E-04
4.990	1.79E-04
5.030	1.72E-04
5.070	1.78E-04
5.110	2.83E-04
5.150	2.21E-04
5.190	2.50E-04
5.230	2.96E-04
5.270	3.52E-04
5.310	4.28E-04
5.350	5.09E-04
5.390	5.58E-04
5.430	5.69E-04
5.470	5.67E-04
