Material: specs / crystran / CaF2
Optical constants. Crystran Ltd. The Crystran handbook of infra-red and ultra-violet optical materials (5th edition, 2023) See also Crystran CaF2 online data sheet
Comments: Calcium Fluoride has widespread IR applications as spectroscopic CaF2 windows, CaF2 prisms and CaF2 lenses. Especially pure grades of Calcium Fluoride (CaF2) find useful applications in the UV and as UV Excimer laser windows. Calcium Fluoride (CaF2) is available doped with Europium as a gamma-ray scintillator. Calcium fluoride (CaF2 or fluorite) is grown by vacuum Stockbarger technique in diameters of up to about 250mm. Crystal for infrared use is often grown using naturally mined fluorite to reduce costs. It will not have the best transmission in the UV and VUV and can have absorption bands at 300nm due to impurities. For UV and VUV applications chemically prepared raw material is generally used. For Excimer applications, we use only the highest grade of specially selected material and crystal. REFERENCES: (1) Handbook Optical Constants, ed Palik, V2, ISBN 0-12-544422-2 (2) Dressler et al., Cryst.Res.Technol. V27, p413, 1992 (3) I.H.Malitson; J.Opt.Soc.Am. Vol52, p1377, 1962 (4) Ballard et al; Rev. Sci. Instr., V21, p905, 1950 also OSA PUBLISHING (5) Batchelder & Simmons, J.Chem. Phys. V41, p2324 N8 1964 (6) Schumann & Neumann, Crys. Res. Tech V19, 1984 (7) Dickinson, IR laser windows, AFCRL-TR-0318, Air Force, Cambridge 1975
Conditions: {"orientation": "o"}
Properties: {"density": [{"value": 3180}], "thermal_dispersion": [{"type": "constant", "value": -1.06e-05}], "thermal_expansion": {"value": 1.885e-05}, "hardness": [{"type": "Knoop", "indenter_mass": 0.5, "value": "1.55e9"}], "melting_point": [{"value": 1633}], "thermal_conductivity": [{"value": 9.71}], "youngs_modulus": [{"value": "75.8e9"}], "solubility": [{"value": 0.017}]}
wavelength (um)	n
0.149	1.5800
0.161	1.5490
0.195	1.5000
0.200	1.4950
0.222	1.4800
0.248	1.4680
0.266	1.4621
0.280	1.4584
0.300	1.454
0.337	1.4481
0.400	1.4419
0.486	1.4370
0.588	1.4339
0.656	1.4325
0.687	1.4320
0.728	1.4314
0.884	1.4298
1.014	1.4288
1.100	1.4283
1.250	1.4275
1.650	1.4256
1.900	1.4244
2.058	1.4236
2.450	1.4214
2.700	1.4199
2.800	1.4192
3.050	1.4175
3.400	1.4149
4.000	1.4096
4.400	1.4057
4.800	1.4014
5.000	1.3991
5.304	1.3952
5.893	1.3871
6.483	1.3782
7.072	1.3681
7.661	1.357
8.251	1.3444
8.840	1.3308
9.429	1.3161
wavelength (um)	k
0.1200	4.66E-06
0.1210	5.31E-06
0.1220	4.85E-06
0.1230	2.94E-06
0.1240	2.11E-06
0.1250	1.56E-06
0.1260	1.28E-06
0.1270	1.16E-06
0.1280	1.00E-06
0.1290	8.46E-07
0.1300	8.14E-07
0.1310	8.53E-07
0.1320	8.14E-07
0.1330	8.01E-07
0.1340	7.63E-07
0.1350	7.83E-07
0.1360	7.61E-07
0.1370	7.87E-07
0.1380	7.58E-07
0.1390	7.59E-07
0.1400	7.61E-07
0.1410	7.03E-07
0.1420	7.20E-07
0.1430	6.92E-07
0.1440	6.70E-07
0.1450	6.34E-07
0.1460	6.21E-07
0.1470	5.79E-07
0.1480	5.43E-07
0.1490	5.24E-07
0.1500	4.74E-07
0.1510	4.49E-07
0.1520	4.31E-07
0.1530	4.13E-07
0.1540	3.43E-07
0.1550	3.23E-07
0.1560	3.30E-07
0.1570	2.79E-07
0.1580	2.85E-07
0.1590	2.86E-07
0.1600	2.63E-07
0.1610	3.06E-07
0.1620	2.54E-07
0.1630	2.92E-07
0.1640	2.64E-07
0.1650	2.70E-07
0.1660	2.52E-07
0.1670	2.44E-07
0.1680	2.61E-07
0.1690	2.48E-07
0.1700	2.38E-07
0.1710	2.32E-07
0.1720	2.40E-07
0.1730	2.20E-07
0.1740	2.16E-07
0.1750	2.06E-07
0.1760	2.09E-07
0.1770	1.89E-07
0.1780	1.70E-07
0.1790	1.53E-07
0.1800	1.77E-07
0.1810	1.49E-07
0.1820	1.42E-07
0.1830	1.40E-07
0.1840	1.15E-07
0.1850	1.07E-07
0.1860	1.06E-07
0.1870	1.20E-07
0.1880	1.22E-07
0.1890	1.30E-07
0.1900	1.23E-07
0.1910	9.50E-08
0.1920	8.78E-08
0.1930	1.23E-07
0.1940	1.15E-07
0.1950	8.86E-08
0.1960	1.11E-07
0.1970	9.85E-08
0.1980	1.04E-07
0.1990	7.46E-08
0.2000	7.19E-08
0.2010	8.24E-08
0.2020	9.01E-08
0.2030	7.40E-08
0.2040	6.93E-08
0.2050	5.44E-08
0.2060	5.80E-08
0.2070	6.19E-08
0.2080	8.40E-08
0.2090	4.89E-08
0.2100	4.99E-08
0.2110	4.56E-08
0.2120	6.59E-08
0.2130	5.84E-08
0.2140	2.65E-08
0.2150	3.50E-08
0.2160	2.48E-08
0.2170	7.63E-08
0.2180	7.48E-08
0.2190	4.15E-08
0.2200	4.77E-08
0.2210	2.10E-08
0.2220	3.77E-08
0.2230	2.65E-08
0.2240	2.52E-08
0.2250	3.30E-08
0.2260	1.19E-08
0.2270	2.40E-08
0.2280	3.07E-08
0.2290	1.83E-08
0.2300	2.64E-08
0.2310	3.23E-08
0.2320	1.69E-08
0.2330	1.96E-08
0.2340	2.62E-08
0.2350	2.28E-08
0.2360	4.11E-08
0.2370	2.84E-08
0.2380	5.20E-08
0.2390	4.87E-08
0.2400	4.32E-08
2.55	0.00E+00
2.65	0.00E+00
2.75	0.00E+00
2.85	0.00E+00
2.95	0.00E+00
3.05	0.00E+00
3.15	0.00E+00
3.25	0.00E+00
3.35	0.00E+00
3.45	0.00E+00
3.55	0.00E+00
3.65	0.00E+00
3.75	0.00E+00
3.85	0.00E+00
3.95	0.00E+00
4.05	0.00E+00
4.15	0.00E+00
4.25	0.00E+00
4.35	0.00E+00
4.45	0.00E+00
4.55	0.00E+00
4.65	0.00E+00
4.75	8.60E-09
4.85	3.66E-08
4.95	6.51E-08
5.05	8.47E-08
5.15	9.41E-08
5.25	9.65E-08
5.35	9.60E-08
5.45	9.62E-08
5.55	9.98E-08
5.65	1.12E-07
5.75	1.48E-07
5.85	2.43E-07
5.95	3.72E-07
6.05	4.61E-07
6.15	5.35E-07
6.25	6.07E-07
6.35	6.83E-07
6.45	7.61E-07
6.55	8.43E-07
6.65	9.52E-07
6.75	1.13E-06
6.85	1.39E-06
6.95	1.71E-06
7.05	2.07E-06
7.15	2.46E-06
7.25	2.91E-06
7.35	3.49E-06
7.45	4.19E-06
7.55	4.96E-06
7.65	5.86E-06
7.75	6.96E-06
7.85	8.28E-06
7.95	9.77E-06
8.05	1.16E-05
8.15	1.35E-05
8.25	1.59E-05
8.35	1.86E-05
8.45	2.16E-05
8.55	2.50E-05
8.65	2.90E-05
8.75	3.37E-05
8.85	3.90E-05
8.95	4.46E-05
9.05	5.13E-05
9.15	5.89E-05
9.25	6.73E-05
9.35	7.64E-05
9.45	8.69E-05
9.55	9.87E-05
9.65	1.11E-04
9.75	1.27E-04
9.85	1.42E-04
9.95	1.61E-04
10.05	1.59E-04
10.15	1.79E-04
10.25	2.00E-04
10.35	2.25E-04
10.45	2.51E-04
10.55	2.79E-04
10.65	3.11E-04
10.75	3.48E-04
10.85	3.87E-04
10.95	4.29E-04
11.05	4.73E-04
11.15	5.19E-04
11.25	5.68E-04
11.35	6.22E-04
11.45	6.77E-04
11.55	7.37E-04
11.65	8.08E-04
11.75	8.84E-04
11.85	9.65E-04
11.95	1.06E-03
12.05	1.17E-03
12.15	1.30E-03
12.25	1.45E-03
12.35	1.62E-03
12.45	1.85E-03
12.55	2.10E-03
12.65	2.35E-03
12.75	2.60E-03
12.85	2.84E-03
12.95	3.08E-03
13.05	3.33E-03
13.15	3.57E-03
13.25	3.84E-03
13.35	4.15E-03
13.45	4.50E-03
13.55	4.90E-03
13.65	5.31E-03
13.75	5.64E-03
13.85	5.82E-03
13.95	5.85E-03
14.05	5.80E-03
14.15	5.75E-03
14.25	5.74E-03
14.35	5.79E-03
14.45	5.94E-03
14.55	6.16E-03
14.65	6.47E-03
14.75	6.83E-03
14.85	7.22E-03
14.95	7.71E-03
