Material: specs / crystran / CsBr
Optical constants. Crystran Ltd. The Crystran handbook of infra-red and ultra-violet optical materials (5th edition, 2023) See also Crystran CsBr online data sheet
Comments: Caesium Bromide is grown by sealed ampoule Stockbarger technique. CsBr is a soft pliable material. IUPAC International Union of Pure and applied Chemistry recommends the spelling as Cesium. UK Useage is Caesium. Solubility has historically been quoted as 124g/100mL at 25Â°C but Crystran Ltd tests 2021 have found this to be inaccurate. REFERENCES: (1) Handbook Optical Constants, ed Palik, V3, ISBN 0-12-544423-0 (2) Mitsuishi et al., J Opt Soc. Am. V52, p14, 1962 (3) Kelly, Bureau of Mines Bulletin, No371, p51, 1934 (4) S.Ballard et al; J.Opt.Soc.Am. Vol42, p684, 1952 (5) H.H.Li; J.Phys. Chem. Ref. Data. Vol 5, No 2. 1976 (6) K.Matthews. Crystran Ltd Test Data 2021
Conditions: {"temperature": 300}
Properties: {"density": [{"value": 4400}], "thermal_dispersion": [{"type": "constant", "wavelength": 6e-07, "value": 8.4e-05}], "thermal_expansion": [{"temperature": 273, "value": 4.79e-05}], "hardness": [{"type": "Knoop", "value": "1.91e8"}], "melting_point": [{"value": 909}], "thermal_conductivity": [{"temperature": 273, "value": 0.94}], "youngs_modulus": [{"value": "15.85e9"}], "poissons_ratio": [{"value": 0.279}], "solubility": [{"temperature": 284, "value": 420}, {"temperature": 288, "value": 560}, {"temperature": 298, "value": 900}, {"temperature": 300, "value": 980}, {"temperature": 301.5, "value": 1020}, {"temperature": 304, "value": 1180}, {"temperature": 308, "value": 1380}]}
wavelength (um)	n
0.5	1.70896
1.0	1.67793
2.0	1.67061
3.0	1.66901
4.0	1.66813
5.0	1.66737
6.0	1.66659
7.0	1.66573
8.0	1.66477
9.0	1.6637
10.0	1.66251
11.0	1.6612
12.0	1.65976
13.0	1.6582
14.0	1.6561
15.0	1.65468
16.0	1.65272
17.0	1.65062
18.0	1.64838
19.0	1.646
20.0	1.64348
21.0	1.6408
22.0	1.63798
23.0	1.635
25.0	1.62856
26.0	1.62509
27.0	1.62146
28.0	1.61764
29.0	1.61365
30.0	1.60947
31.0	1.6051
32.0	1.60053
33.0	1.59576
34.0	1.59078
35.0	1.58558
36.0	1.58016
37.0	1.5745
38.0	1.5686
39.0	1.56245
wavelength (um)	k
0.190	1.80E-05
0.191	1.86E-05
0.192	1.91E-05
0.193	1.95E-05
0.194	1.98E-05
0.195	1.99E-05
0.196	2.00E-05
0.197	2.00E-05
0.198	1.99E-05
0.199	1.76E-05
0.200	1.49E-05
0.201	1.23E-05
0.202	8.91E-06
0.203	6.18E-06
0.204	4.56E-06
0.205	3.53E-06
0.206	2.84E-06
0.207	2.42E-06
0.208	2.20E-06
0.209	1.97E-06
0.210	1.89E-06
0.211	1.81E-06
0.212	1.73E-06
0.213	1.67E-06
0.214	1.64E-06
0.215	1.61E-06
0.216	1.58E-06
0.217	1.55E-06
0.218	1.51E-06
0.219	1.46E-06
0.220	1.39E-06
0.221	1.30E-06
0.222	1.22E-06
0.223	1.16E-06
0.224	1.08E-06
0.225	9.98E-07
0.226	9.23E-07
0.227	8.53E-07
0.228	7.95E-07
0.229	7.34E-07
0.230	6.71E-07
0.231	6.12E-07
0.232	5.59E-07
0.233	5.11E-07
0.234	4.64E-07
0.235	4.17E-07
0.236	3.76E-07
0.237	3.55E-07
0.238	3.28E-07
0.239	3.05E-07
0.240	2.85E-07
0.241	2.69E-07
0.242	2.58E-07
0.243	2.48E-07
0.244	2.39E-07
0.245	2.31E-07
0.246	2.26E-07
0.247	2.24E-07
0.248	2.25E-07
0.249	2.25E-07
0.250	2.28E-07
0.251	2.37E-07
0.252	2.53E-07
0.253	2.81E-07
0.254	3.31E-07
0.255	3.94E-07
0.256	4.76E-07
0.257	6.01E-07
0.258	6.85E-07
0.259	7.73E-07
0.260	8.34E-07
0.261	8.70E-07
0.262	8.57E-07
0.263	8.10E-07
0.264	7.69E-07
0.265	6.89E-07
0.266	6.12E-07
0.267	5.45E-07
0.268	4.87E-07
0.269	4.39E-07
0.270	3.93E-07
0.271	3.52E-07
0.272	3.23E-07
0.273	3.02E-07
0.274	2.81E-07
0.275	2.72E-07
0.276	2.64E-07
0.277	2.60E-07
0.278	2.65E-07
0.279	2.66E-07
0.280	2.54E-07
0.281	2.48E-07
0.282	2.48E-07
0.283	2.52E-07
0.284	2.57E-07
0.285	2.59E-07
0.286	2.57E-07
0.287	2.54E-07
0.288	2.54E-07
0.289	2.62E-07
0.290	2.71E-07
0.291	2.68E-07
0.292	2.60E-07
0.293	2.56E-07
0.294	2.55E-07
0.295	2.58E-07
0.296	2.63E-07
0.297	2.67E-07
0.298	2.53E-07
0.299	2.52E-07
0.300	2.70E-07
0.301	2.71E-07
0.302	2.53E-07
0.303	2.52E-07
0.304	2.61E-07
0.305	2.70E-07
0.306	2.67E-07
0.307	2.59E-07
0.308	2.67E-07
0.309	2.79E-07
0.310	2.69E-07
0.311	2.53E-07
0.312	2.57E-07
0.313	2.86E-07
0.314	2.64E-07
0.315	2.90E-07
0.316	2.70E-07
0.317	2.67E-07
0.318	2.70E-07
0.319	2.74E-07
0.320	2.71E-07
0.321	2.79E-07
0.322	2.90E-07
0.323	2.89E-07
0.324	2.84E-07
0.325	2.80E-07
0.326	2.85E-07
0.327	3.01E-07
0.328	2.98E-07
0.329	2.82E-07
0.330	2.81E-07
0.331	2.97E-07
0.332	3.01E-07
0.333	2.87E-07
0.334	2.88E-07
0.335	3.04E-07
0.336	3.06E-07
0.337	3.02E-07
0.338	2.99E-07
0.339	3.02E-07
0.340	2.81E-07
0.341	2.19E-07
0.342	2.24E-07
0.343	2.25E-07
0.344	2.22E-07
0.345	2.16E-07
0.346	2.19E-07
0.347	2.21E-07
0.348	2.09E-07
0.349	2.15E-07
0.350	2.20E-07
0.351	2.22E-07
0.352	2.23E-07
0.353	2.20E-07
0.354	2.12E-07
0.355	2.04E-07
0.356	2.10E-07
0.357	2.21E-07
0.358	2.22E-07
0.359	2.17E-07
0.360	2.14E-07
0.361	2.23E-07
0.362	2.28E-07
0.363	2.21E-07
0.364	2.11E-07
0.365	2.09E-07
0.366	2.29E-07
0.367	2.33E-07
0.368	2.19E-07
0.369	2.10E-07
0.370	2.18E-07
0.371	2.26E-07
0.372	2.18E-07
0.373	2.09E-07
0.374	2.19E-07
0.375	2.34E-07
0.376	2.26E-07
0.377	2.17E-07
0.378	2.16E-07
0.379	2.18E-07
0.380	2.21E-07
0.381	2.24E-07
0.382	2.25E-07
0.383	2.26E-07
0.384	2.27E-07
0.385	2.26E-07
0.386	2.24E-07
0.387	2.22E-07
0.388	2.21E-07
0.389	2.21E-07
0.390	2.21E-07
0.391	2.22E-07
0.392	2.23E-07
0.393	2.23E-07
0.394	2.24E-07
0.395	2.25E-07
0.396	2.25E-07
0.397	2.25E-07
0.398	2.24E-07
0.399	2.23E-07
0.400	2.21E-07
2.500	1.44E-07
2.532	1.47E-07
2.564	1.48E-07
2.597	1.46E-07
2.632	1.36E-07
2.667	1.10E-07
2.703	0.00E+00
2.740	0.00E+00
2.778	0.00E+00
2.817	0.00E+00
2.857	0.00E+00
2.899	0.00E+00
2.941	0.00E+00
2.985	0.00E+00
3.030	0.00E+00
3.077	0.00E+00
3.125	0.00E+00
3.175	0.00E+00
3.226	0.00E+00
3.279	0.00E+00
3.333	0.00E+00
3.390	0.00E+00
3.448	0.00E+00
3.509	0.00E+00
3.571	0.00E+00
3.636	0.00E+00
3.704	0.00E+00
3.774	0.00E+00
3.846	0.00E+00
3.922	0.00E+00
4.000	0.00E+00
4.082	0.00E+00
4.167	0.00E+00
4.255	0.00E+00
4.348	0.00E+00
4.444	0.00E+00
4.545	0.00E+00
4.651	0.00E+00
4.762	0.00E+00
4.878	0.00E+00
5.000	0.00E+00
5.128	0.00E+00
5.263	0.00E+00
5.405	0.00E+00
5.556	0.00E+00
5.714	0.00E+00
5.882	0.00E+00
6.061	0.00E+00
6.250	0.00E+00
6.452	0.00E+00
6.667	0.00E+00
6.897	0.00E+00
7.143	0.00E+00
7.407	0.00E+00
7.692	0.00E+00
8.000	0.00E+00
8.333	0.00E+00
8.696	0.00E+00
9.091	0.00E+00
9.524	0.00E+00
10.000	0.00E+00
10.526	0.00E+00
11.111	0.00E+00
11.765	0.00E+00
12.500	0.00E+00
13.333	0.00E+00
14.286	0.00E+00
15.385	0.00E+00
16.667	0.00E+00
18.182	0.00E+00
20.000	0.00E+00
22.222	0.00E+00
25.000	0.00E+00
28.571	8.91E-08
33.333	1.00E-05
40.000	7.65E-05
