Material: specs / crystran / diamond
Optical constants. Crystran Ltd. The Crystran handbook of infra-red and ultra-violet optical materials (5th edition, 2023) See also Crystran Diamond online data sheet
Comments: Diamond is used for transmission windows and domes, and offers a very wide transmission range. Type IIa is the hardest material available and has the highest thermal conductivity. Diamond is available as single crystal (Type IIa) natural or synthetic or as polycrystalline CVD film. Single crystal is available economically up to about 4mm diameter. CVD diamond of 75mm diameter is available. The IR transmission has a range of absorptions in the mid-IR between 2,5 and 7 microns due to inherent lattice resonances. The UV transmission may be limited to 350nm in poorer quality samples. Single crystal diamond is selected into four forms: Ia ~98% of natural yield (>100ppm Nitrogen - yellow) Ib ~0.1% of natural yield (~100ppm Nitrogen) IIa ~2% of natural yield (1ppm Nitrogen) IIb - Synthetic only (100ppm boron for electronic applications) Only Type IIa is used for optical applications. CVD diamond transmission and characteristics are very similar to Type IIa. Being a form of carbon, diamond oxidises in air over 700°C. In the absence of oxygen such as in a flow or argon gas, diamond can be heated to 1700°C. The surface blackens but can be recovered by polishing. REFERENCES: (1) Handbook Optical Constants, ed Palik, V1, ISBN 0-12-544420-6 (2) Properties Polycrystalline Diamond, Sussmann et. al. Diamond & Rel. Mat. 3(1994) 303-312 (3) Fontenella et. al. App. Optics 16, 2949 (1977) (4) Slack & Bartram J.Appl. Phys. 46, 89 (1975)
Properties: {"density": [{"value": 3510}], "thermal_dispersion": [{"type": "constant", "value": 9.6e-06}], "thermal_expansion": [{"temperature": 293, "value": 1e-06}], "hardness": [{"type": "Knoop", "value": "5.59e10"}], "melting_point": [{"value": 3770}], "thermal_conductivity": [{"temperature": 273, "value": 2600}], "youngs_modulus": [{"value": "1.050e12"}], "poissons_ratio": [{"value": 0.16}], "solubility": [{"value": 0}]}
wavelength (um)	n
0.232	2.6917
0.298	2.5429
0.405	2.4626
0.589	2.4175
0.656	2.4104
1.00	2.3905
2.00	2.3813
3.00	2.3795
4.00	2.3787
5.00	2.3783
6.00	2.3779
10.0	2.3765
20.0	2.3741
wavelength (um)	k
0.240	4.89E-06
0.244	3.62E-06
0.248	3.26E-06
0.252	3.05E-06
0.256	2.58E-06
0.260	2.39E-06
0.264	2.29E-06
0.268	2.29E-06
0.272	2.33E-06
0.276	2.33E-06
0.280	2.27E-06
0.284	2.20E-06
0.288	2.21E-06
0.292	2.19E-06
0.296	2.20E-06
0.300	2.27E-06
0.304	2.34E-06
0.308	2.38E-06
0.312	2.40E-06
0.316	2.42E-06
0.320	2.47E-06
0.324	2.53E-06
0.328	2.60E-06
0.332	2.66E-06
0.336	2.68E-06
0.340	2.68E-06
0.344	2.67E-06
0.348	2.66E-06
0.352	2.64E-06
0.356	2.67E-06
0.360	2.73E-06
0.364	2.81E-06
0.368	2.88E-06
0.372	2.96E-06
0.376	3.06E-06
0.380	3.15E-06
0.384	3.19E-06
0.388	3.19E-06
0.392	3.14E-06
0.396	3.10E-06
0.400	3.04E-06
0.404	2.87E-06
0.408	2.78E-06
0.412	2.65E-06
0.416	2.45E-06
0.420	2.39E-06
0.424	2.34E-06
0.428	2.30E-06
0.432	2.32E-06
0.436	2.36E-06
0.440	2.42E-06
0.444	2.47E-06
0.448	2.53E-06
0.452	2.57E-06
0.456	2.53E-06
0.460	2.40E-06
0.464	2.41E-06
0.468	2.43E-06
0.472	2.44E-06
0.476	2.44E-06
0.480	2.40E-06
0.484	2.35E-06
0.488	2.31E-06
0.492	2.30E-06
0.496	2.29E-06
0.500	2.29E-06
0.504	2.30E-06
0.508	2.31E-06
0.512	2.32E-06
0.516	2.21E-06
0.520	2.09E-06
0.524	2.18E-06
0.528	2.33E-06
0.532	2.29E-06
0.536	2.18E-06
0.540	2.12E-06
0.544	2.11E-06
0.548	2.13E-06
0.552	2.15E-06
0.556	2.18E-06
0.560	2.21E-06
0.564	2.25E-06
0.568	2.31E-06
0.572	2.35E-06
0.576	2.32E-06
0.580	2.18E-06
0.584	1.99E-06
0.588	1.90E-06
0.592	2.00E-06
0.596	2.11E-06
0.600	2.14E-06
0.604	2.14E-06
0.608	2.16E-06
0.612	2.14E-06
0.616	2.04E-06
0.620	1.92E-06
0.624	1.87E-06
0.628	1.94E-06
0.632	1.99E-06
0.636	1.98E-06
0.640	1.92E-06
0.644	1.77E-06
0.648	1.73E-06
0.652	1.73E-06
0.656	1.74E-06
0.660	1.76E-06
0.664	1.78E-06
0.668	1.80E-06
0.672	1.83E-06
0.676	1.85E-06
0.680	1.87E-06
0.684	1.89E-06
0.688	1.91E-06
0.692	1.93E-06
0.696	1.94E-06
0.700	1.93E-06
0.704	1.90E-06
0.708	1.83E-06
0.712	1.73E-06
0.716	1.66E-06
0.720	1.61E-06
0.724	1.59E-06
0.728	1.58E-06
0.732	1.58E-06
0.736	1.59E-06
0.740	1.60E-06
0.744	1.61E-06
0.748	1.62E-06
0.752	1.62E-06
0.756	1.62E-06
0.760	1.60E-06
0.764	1.57E-06
0.768	1.50E-06
0.772	1.39E-06
0.776	1.21E-06
0.780	9.73E-07
0.784	8.49E-07
0.788	8.22E-07
0.792	8.28E-07
0.796	8.40E-07
2.2	1.15E-06
2.4	3.99E-06
2.6	1.79E-05
2.8	3.85E-05
3.0	4.11E-05
3.2	4.46E-05
3.4	3.85E-05
3.6	3.30E-05
3.8	9.63E-05
4.0	1.73E-04
4.2	2.03E-04
4.4	3.32E-04
4.6	4.75E-04
4.8	4.62E-04
5.0	5.85E-04
5.2	4.15E-04
5.4	2.59E-04
5.6	1.37E-04
5.8	1.08E-04
6.0	8.04E-05
6.2	5.93E-05
6.4	5.00E-05
6.6	4.13E-05
6.8	3.28E-05
7.0	2.57E-05
7.2	2.17E-05
7.4	1.95E-05
7.6	1.84E-05
7.8	1.81E-05
8.0	1.80E-05
8.2	1.81E-05
8.4	1.83E-05
8.6	1.88E-05
8.8	1.94E-05
9.0	2.01E-05
9.2	2.08E-05
9.4	2.15E-05
9.6	2.23E-05
9.8	2.30E-05
10.0	2.39E-05
10.2	2.47E-05
10.4	2.56E-05
10.6	2.65E-05
10.8	2.75E-05
11.0	2.84E-05
11.2	2.92E-05
11.4	2.98E-05
11.6	3.00E-05
11.8	2.88E-05
12.0	2.57E-05
12.2	2.49E-05
12.4	2.53E-05
12.6	2.58E-05
12.8	2.63E-05
13.0	2.68E-05
13.2	2.72E-05
13.4	2.76E-05
13.6	2.80E-05
13.8	2.84E-05
14.0	2.88E-05
14.2	2.93E-05
14.4	2.98E-05
14.6	3.02E-05
14.8	3.08E-05
15.0	3.14E-05
15.2	3.20E-05
15.4	3.27E-05
15.6	3.35E-05
15.8	3.44E-05
16.0	3.53E-05
16.2	3.63E-05
16.4	3.73E-05
16.6	3.85E-05
16.8	3.97E-05
17.0	4.08E-05
17.2	4.16E-05
17.4	4.17E-05
17.6	4.02E-05
17.8	3.47E-05
18.0	3.51E-05
18.2	3.56E-05
18.4	3.61E-05
18.6	3.66E-05
18.8	3.71E-05
19.0	3.77E-05
19.2	3.82E-05
19.4	3.88E-05
19.6	3.93E-05
19.8	3.98E-05
20.0	4.04E-05
20.2	4.10E-05
20.4	4.16E-05
20.6	4.22E-05
20.8	4.28E-05
21.0	4.34E-05
21.2	4.40E-05
21.4	4.47E-05
21.6	4.53E-05
21.8	4.60E-05
22.0	4.66E-05
22.2	4.73E-05
22.4	4.81E-05
22.6	4.88E-05
22.8	4.96E-05
23.0	5.03E-05
23.2	5.11E-05
23.4	5.19E-05
23.6	5.27E-05
23.8	5.36E-05
24.0	5.44E-05
24.2	5.52E-05
24.4	5.61E-05
24.6	5.70E-05
24.8	5.77E-05
