Material: specs / crystran / fused_silica-vis
Optical constants. Crystran Ltd. The Crystran handbook of infra-red and ultra-violet optical materials (5th edition, 2023) See also Crystran Fused silica online data sheet
Comments: Fused Silica is a hard, high temperature pure glass. Fused Silica is used for UV and visible components. Infra-red grades of Fused Silica are available for NIR use. Fused Silica is the glassy form of Quartz and is thus isotropic. Fused Silica is tough and hard and has a very low expansion. Normal varieties of Fused Silica contain water which gives strong absortion in the IR. Water-free varieties of Fused Silica are available. REFERENCES: (1) Handbook Optical Constants, ed Palik, V1, ISBN 0-12-544420-6 (2) Toyoda & Yabe J. Phys. D: Appl. Phys.,1 6 (1983)
Properties: {"density": [{"value": 2203}], "thermal_dispersion": [{"type": "constant", "value": 1.29e-05}], "thermal_expansion": [{"temperature": 300, "value": 5.5e-07}], "hardness": [{"type": "Knoop", "indenter_mass": 0.2, "value": "4.90e9"}], "melting_point": [{"value": 1873}], "thermal_conductivity": [{"value": 1.38}], "youngs_modulus": [{"value": "73.1e9"}], "poissons_ratio": [{"value": 0.17}], "solubility": [{"value": 0}]}
wavelength (um)	n
0.20	1.55051
0.25	1.50745
0.30	1.48779
0.36	1.47529
0.40	1.47012
0.45	1.46557
0.50	1.46233
0.55	1.46008
0.60	1.45804
0.65	1.45653
0.70	1.45529
0.75	1.45424
0.80	1.45332
0.85	1.45245
0.90	1.45175
1.00	1.45042
1.10	1.44920
1.20	1.44805
1.30	1.44692
1.50	1.44462
1.60	1.44342
1.70	1.44217
1.80	1.44087
1.90	1.43951
2.00	1.43809
2.20	1.43501
2.40	1.43163
2.60	1.42789
2.80	1.42377
3.00	1.41925
3.20	1.41427
3.37	1.41099
wavelength (um)	k
0.190	2.51E-06
0.192	2.44E-06
0.194	2.39E-06
0.196	2.38E-06
0.198	2.37E-06
0.200	2.34E-06
0.202	2.28E-06
0.204	2.17E-06
0.206	2.02E-06
0.208	1.82E-06
0.210	1.60E-06
0.212	1.38E-06
0.214	1.17E-06
0.216	9.90E-07
0.218	8.12E-07
0.220	6.89E-07
0.222	5.91E-07
0.224	5.28E-07
0.226	5.02E-07
0.228	5.03E-07
0.230	5.26E-07
0.232	5.62E-07
0.234	6.08E-07
0.236	6.57E-07
0.238	6.92E-07
0.240	7.12E-07
0.242	7.08E-07
0.244	6.77E-07
0.246	6.16E-07
0.248	5.38E-07
0.250	4.56E-07
0.252	3.74E-07
0.254	3.01E-07
0.256	2.38E-07
0.258	1.82E-07
0.260	1.42E-07
0.262	1.10E-07
0.264	8.47E-08
0.266	7.02E-08
0.268	6.28E-08
0.270	5.76E-08
0.272	5.28E-08
0.274	4.87E-08
0.276	4.83E-08
0.278	4.87E-08
0.280	4.74E-08
0.282	4.51E-08
0.284	4.27E-08
0.286	4.07E-08
0.288	3.93E-08
0.290	3.85E-08
0.292	3.82E-08
0.294	3.81E-08
0.296	3.81E-08
0.298	3.80E-08
0.300	3.78E-08
0.302	3.73E-08
0.304	3.68E-08
0.306	3.62E-08
0.308	3.54E-08
0.310	3.47E-08
0.312	3.41E-08
0.314	3.34E-08
0.316	3.28E-08
0.318	3.23E-08
0.320	3.19E-08
0.322	3.14E-08
0.324	3.09E-08
0.326	3.05E-08
0.328	3.00E-08
0.330	2.96E-08
0.332	2.92E-08
0.334	2.90E-08
0.336	2.89E-08
0.338	2.92E-08
0.340	2.87E-08
0.342	1.43E-08
0.344	1.26E-08
0.346	1.24E-08
0.348	1.24E-08
0.350	1.25E-08
0.352	1.25E-08
0.354	1.25E-08
0.356	1.25E-08
0.358	1.17E-08
0.360	9.00E-09
0.362	7.81E-09
0.364	7.33E-09
0.366	7.10E-09
0.368	7.02E-09
0.370	6.98E-09
0.372	6.88E-09
0.374	6.57E-09
0.376	6.03E-09
0.378	5.26E-09
0.380	4.80E-09
0.382	5.04E-09
0.384	5.87E-09
0.386	6.88E-09
0.388	7.78E-09
0.390	8.24E-09
0.392	8.47E-09
0.394	8.65E-09
0.396	8.88E-09
0.398	9.22E-09
0.400	9.61E-09
1.440	2.87E-07
1.460	1.66E-07
1.480	9.60E-08
1.500	6.14E-08
1.520	4.83E-08
1.540	4.01E-08
1.560	2.88E-08
1.580	1.56E-08
1.600	3.93E-09
1.620	-1.61E-09
1.640	1.76E-09
1.660	1.02E-08
1.680	1.19E-08
1.700	5.71E-09
1.720	1.84E-09
1.740	2.05E-08
1.760	7.18E-08
1.780	1.17E-07
1.800	1.49E-07
1.820	1.67E-07
1.840	2.00E-07
1.860	2.44E-07
1.880	2.83E-07
1.900	3.14E-07
1.920	3.31E-07
1.940	3.24E-07
1.960	3.17E-07
1.980	3.18E-07
2.000	3.19E-07
2.020	3.41E-07
2.040	4.32E-07
2.060	5.18E-07
2.080	5.16E-07
2.100	5.12E-07
2.120	5.35E-07
2.140	6.79E-07
2.160	1.07E-06
2.180	1.73E-06
2.200	4.67E-06
2.220	7.81E-06
2.240	6.23E-06
2.260	5.42E-06
2.280	3.63E-06
2.300	2.49E-06
2.320	1.77E-06
2.340	1.42E-06
2.360	1.28E-06
2.380	1.25E-06
2.400	1.38E-06
2.420	1.74E-06
2.440	2.21E-06
2.460	2.70E-06
2.480	3.25E-06
2.500	4.10E-06
2.520	5.31E-06
2.540	6.90E-06
2.560	8.80E-06
2.580	1.05E-05
2.600	1.20E-05
2.620	1.33E-05
2.640	1.55E-05
2.660	2.10E-05
2.680	4.57E-05
2.700	2.20E-04
2.720	2.73E-04
2.740	2.70E-04
2.760	2.57E-04
2.780	2.35E-04
2.800	1.62E-04
2.820	1.01E-04
2.840	6.22E-05
2.860	3.78E-05
2.880	2.56E-05
2.900	1.81E-05
2.920	1.40E-05
2.940	1.13E-05
2.960	9.47E-06
2.980	8.14E-06
3.000	7.36E-06
3.020	6.68E-06
3.040	6.09E-06
3.060	5.68E-06
3.080	5.40E-06
3.100	5.19E-06
3.120	5.06E-06
3.140	4.94E-06
3.160	4.78E-06
3.180	4.59E-06
3.200	4.39E-06
3.220	4.27E-06
3.240	4.18E-06
3.260	4.06E-06
3.280	3.96E-06
3.300	3.89E-06
3.320	3.86E-06
3.340	3.92E-06
3.360	4.11E-06
3.380	4.41E-06
3.400	4.85E-06
3.420	5.34E-06
3.440	5.94E-06
3.460	6.91E-06
3.480	8.41E-06
3.500	1.03E-05
3.520	1.25E-05
3.540	1.49E-05
3.560	1.72E-05
3.580	1.94E-05
3.600	2.13E-05
3.620	2.33E-05
3.640	2.62E-05
3.660	3.02E-05
3.680	3.51E-05
3.700	4.02E-05
3.720	4.46E-05
3.740	4.81E-05
3.760	5.01E-05
3.780	5.08E-05
3.800	5.07E-05
3.820	5.05E-05
3.840	5.04E-05
3.860	5.08E-05
3.880	5.15E-05
3.900	5.24E-05
3.920	5.35E-05
3.940	5.47E-05
3.960	5.63E-05
3.980	5.85E-05
4.000	6.17E-05
4.020	6.58E-05
4.040	7.10E-05
4.060	7.78E-05
4.080	8.55E-05
4.100	9.31E-05
4.120	1.01E-04
4.140	1.08E-04
4.160	1.15E-04
4.180	1.21E-04
4.200	1.25E-04
4.220	1.34E-04
4.240	1.45E-04
4.260	1.59E-04
4.280	1.75E-04
4.300	1.94E-04
4.320	2.17E-04
4.340	2.40E-04
4.360	2.61E-04
4.380	2.80E-04
4.400	2.94E-04
4.420	2.93E-04
4.440	2.95E-04
4.460	2.93E-04
4.480	2.80E-04
4.500	2.67E-04
4.520	2.57E-04
4.540	2.44E-04
4.560	2.44E-04
4.580	2.43E-04
4.600	2.49E-04
4.620	2.63E-04
4.640	2.77E-04
4.660	2.95E-04
4.680	3.23E-04
4.700	3.60E-04
4.720	3.98E-04
4.740	3.92E-04
4.760	3.87E-04
4.780	3.86E-04
4.800	3.86E-04
4.820	3.87E-04
