Material: specs / crystran / GaAs
Optical constants. Crystran Ltd. The Crystran handbook of infra-red and ultra-violet optical materials (5th edition, 2023) See also Crystran GaAs online data sheet
Comments: Gallium Arsenide has specialist applications in far IR optics and lens systems. Gallium Arsenide is produced by Czochralski or horizontal Bridgeman crystal growth techniques. As it is arsenic bearing, precautions in handling and working should be observed. REFERENCES: (1) Handbook Optical Constants, ed Palik, V1, ISBN 0-12-544420-6 (2) Deutch, J.Electron. Mater. V4 p679 (3) Sze, Physics of Semiconductor Devices, Wiley 1981 (4) M.Cadona. Proc. Int Conf. Semi. Phys. 1960 p.388. Note: dn/dT = n x (4.5 +/-0.2)x10-5 Â°K-1
Properties: {"density": [{"value": 5315}], "thermal_dispersion": [{"type": "constant", "wavelength": 10, "value": "147e-06"}], "thermal_expansion": [{"temperature": 300, "value": 5.7e-06}], "hardness": [{"type": "Knoop", "value": "7.35e9"}], "melting_point": [{"value": 1784}], "thermal_conductivity": [{"temperature": 273, "value": 48}], "youngs_modulus": [{"value": "84.81e9"}], "poissons_ratio": [{"value": 0.31}], "solubility": [{"value": 0}]}
wavelength (um)	n
1.033	3.4920
1.550	3.3737
2.066	3.3380
2.480	3.3240
3.100	3.3125
4.133	3.3027
4.959	3.2978
6.199	3.2921
7.293	3.2874
8.266	3.2831
9.537	3.2769
10.33	3.2727
11.27	3.2671
12.40	3.2597
13.78	3.2493
15.50	3.2336
17.71	3.2081
19.07	3.1866
wavelength (um)	k
0.40	1.38E-04
0.42	1.44E-04
0.44	1.50E-04
0.46	1.60E-04
0.48	1.71E-04
0.50	1.80E-04
0.52	1.90E-04
0.54	2.00E-04
0.56	2.11E-04
0.58	2.21E-04
0.60	2.32E-04
0.62	2.42E-04
0.64	2.54E-04
0.66	2.66E-04
0.68	2.79E-04
0.70	2.92E-04
0.72	3.05E-04
0.74	3.23E-04
0.76	3.39E-04
0.78	3.58E-04
0.80	3.80E-04
0.82	4.07E-04
0.84	4.48E-04
0.86	2.13E-04
0.88	1.68E-04
0.90	4.15E-05
0.92	1.66E-05
0.94	1.49E-05
0.96	1.41E-05
0.98	1.35E-05
1.00	1.29E-05
1.02	1.25E-05
1.04	1.21E-05
1.06	1.15E-05
1.08	1.08E-05
1.10	1.04E-05
1.12	9.78E-06
1.14	8.96E-06
1.16	8.15E-06
1.18	7.32E-06
1.20	6.41E-06
1.22	5.54E-06
1.24	4.83E-06
1.26	4.18E-06
1.28	3.69E-06
1.30	3.09E-06
1.32	2.84E-06
1.34	2.55E-06
1.36	2.44E-06
1.38	1.82E-06
1.40	1.74E-06
1.42	1.65E-06
1.44	1.31E-06
1.46	1.11E-06
1.48	9.66E-07
1.50	8.49E-07
1.52	7.71E-07
1.54	7.20E-07
1.56	6.42E-07
1.58	4.86E-07
1.60	4.19E-07
1.62	4.08E-07
1.64	4.24E-07
1.66	4.35E-07
1.68	3.40E-07
1.70	1.81E-07
1.72	2.42E-07
1.74	4.55E-07
1.76	8.94E-08
1.78	-3.49E-07
1.80	1.82E-07
1.82	4.62E-07
1.84	0.00E+00
1.86	0.00E+00
1.88	0.00E+00
1.90	0.00E+00
1.92	0.00E+00
1.94	0.00E+00
1.96	0.00E+00
1.98	0.00E+00
2.00	0.00E+00
2.55	0.00E+00
2.65	0.00E+00
2.75	0.00E+00
2.85	0.00E+00
2.95	0.00E+00
3.05	0.00E+00
3.15	0.00E+00
3.25	0.00E+00
3.35	0.00E+00
3.45	0.00E+00
3.55	0.00E+00
3.65	0.00E+00
3.75	0.00E+00
3.85	0.00E+00
3.95	0.00E+00
4.05	0.00E+00
4.15	0.00E+00
4.25	0.00E+00
4.35	0.00E+00
4.45	0.00E+00
4.55	0.00E+00
4.65	0.00E+00
4.75	0.00E+00
4.85	0.00E+00
4.95	0.00E+00
5.05	0.00E+00
5.15	0.00E+00
5.25	0.00E+00
5.35	0.00E+00
5.45	0.00E+00
5.55	0.00E+00
5.65	0.00E+00
5.75	0.00E+00
5.85	0.00E+00
5.95	0.00E+00
6.05	0.00E+00
6.15	0.00E+00
6.25	0.00E+00
6.35	0.00E+00
6.45	0.00E+00
6.55	0.00E+00
6.65	0.00E+00
6.75	0.00E+00
6.85	0.00E+00
6.95	0.00E+00
7.05	0.00E+00
7.15	0.00E+00
7.25	0.00E+00
7.35	0.00E+00
7.45	0.00E+00
7.55	0.00E+00
7.65	0.00E+00
7.75	0.00E+00
7.85	0.00E+00
7.95	0.00E+00
8.05	0.00E+00
8.15	0.00E+00
8.25	0.00E+00
8.35	0.00E+00
8.45	0.00E+00
8.55	0.00E+00
8.65	0.00E+00
8.75	0.00E+00
8.85	0.00E+00
8.95	0.00E+00
9.05	0.00E+00
9.15	0.00E+00
9.25	0.00E+00
9.35	0.00E+00
9.45	0.00E+00
9.55	0.00E+00
9.65	0.00E+00
9.75	0.00E+00
9.85	0.00E+00
9.95	0.00E+00
10.05	0.00E+00
10.15	0.00E+00
10.25	0.00E+00
10.35	0.00E+00
10.45	0.00E+00
10.55	0.00E+00
10.65	0.00E+00
10.75	0.00E+00
10.85	0.00E+00
10.95	0.00E+00
11.05	0.00E+00
11.15	0.00E+00
11.25	0.00E+00
11.35	0.00E+00
11.45	0.00E+00
11.55	0.00E+00
11.65	0.00E+00
11.75	0.00E+00
11.85	0.00E+00
11.95	0.00E+00
12.05	0.00E+00
12.15	0.00E+00
12.25	0.00E+00
12.35	0.00E+00
12.45	0.00E+00
12.55	2.67E-06
12.65	8.18E-06
12.75	1.48E-05
12.85	2.28E-05
12.95	2.79E-05
13.05	2.83E-05
13.15	2.08E-05
13.25	1.29E-05
13.35	8.62E-06
13.45	6.97E-06
13.55	6.89E-06
13.65	7.07E-06
13.75	7.09E-06
13.85	8.62E-06
13.95	1.08E-05
14.05	1.28E-05
14.15	1.54E-05
14.25	1.64E-05
14.35	1.69E-05
14.45	1.63E-05
14.55	1.58E-05
14.65	1.56E-05
14.75	1.34E-05
14.85	1.32E-05
14.95	1.54E-05
15.05	1.30E-05
15.15	1.22E-05
15.25	1.30E-05
15.35	1.48E-05
15.45	1.71E-05
15.55	2.03E-05
15.65	2.51E-05
15.75	3.04E-05
15.85	3.61E-05
15.95	4.31E-05
16.05	5.14E-05
16.15	5.90E-05
16.25	6.59E-05
16.35	7.22E-05
16.45	7.84E-05
16.55	8.38E-05
16.65	8.64E-05
16.75	8.85E-05
16.85	9.15E-05
16.95	9.54E-05
17.05	9.85E-05
17.15	1.29E-04
17.25	1.77E-04
17.35	1.85E-04
17.45	1.91E-04
17.55	1.98E-04
17.65	2.08E-04
17.75	2.31E-04
17.85	2.81E-04
17.95	3.78E-04
18.05	5.08E-04
18.15	6.41E-04
18.25	8.05E-04
18.35	1.04E-03
18.45	1.42E-03
18.55	1.93E-03
18.65	2.51E-03
18.75	2.93E-03
18.85	3.47E-03
18.95	4.58E-03
19.05	5.92E-03
19.15	6.48E-03
19.25	5.53E-03
19.35	4.35E-03
19.45	3.80E-03
19.55	3.81E-03
19.65	3.89E-03
19.75	3.60E-03
19.85	3.30E-03
19.95	3.17E-03
20.05	3.15E-03
20.15	3.17E-03
20.25	3.18E-03
20.35	3.16E-03
20.45	3.09E-03
20.55	2.98E-03
20.65	2.72E-03
20.75	2.43E-03
20.85	2.29E-03
20.95	2.23E-03
21.05	2.27E-03
21.15	2.37E-03
21.25	2.46E-03
21.35	2.57E-03
21.45	2.73E-03
21.55	2.90E-03
21.65	3.10E-03
21.75	3.35E-03
21.85	3.68E-03
21.95	4.07E-03
22.05	4.32E-03
22.15	4.43E-03
22.25	4.46E-03
