Material: specs / sumita / K-GIR79
Optical constants. SUMITA Zemax catalog 2017-02-02 (obtained from http://www.sumita-opt.co.jp)See also SUMITA optical glass data book
Conditions: {"temperature": 293}
Properties: {"thermal_dispersion": [{"type": "formula A", "coefficients": "7.61e-06 2.08e-08 -1.25e-10 1.18e-06 1.01e-09 0.239"}], "nd": 1.85588, "Vd": 33.0, "glass_code": 856330, "density": [{"value": 5140}], "thermal_expansion": [{"temperature_range": "243 343", "value": 7.1e-06}, {"temperature_range": "293 573", "value": 8.3e-06}], "dPgF": -0.0017, "resistance": {"climatic": 1.0, "acid": 4.0}}
Dispersion formula 3, range 0.36 1.55 um, coefficients 3.3195074 -0.0085801253 2 0.039978521 -2 0.0014465322 -4 -3.0453007e-05 -6 7.8005005e-06 -8
wavelength (um)	k
0.350	8.6998E-06
0.360	5.0595E-06
0.370	3.4866E-06
0.380	2.5381E-06
0.390	1.8610E-06
0.400	1.3761E-06
0.420	8.3900E-07
0.440	5.7317E-07
0.460	4.1016E-07
0.480	2.8542E-07
0.500	1.9572E-07
0.550	5.7271E-08
0.600	4.3166E-08
0.650	3.1129E-08
0.700	4.4743E-08
0.800	3.8312E-08
1.060	1.6887E-08
1.500	2.3897E-08
2.000	3.1863E-08
