Material: specs / sumita / K-LaSFn1
Optical constants. SUMITA Zemax catalog 2017-02-02 (obtained from http://www.sumita-opt.co.jp)See also SUMITA optical glass data book
Conditions: {"temperature": 293}
Properties: {"thermal_dispersion": [{"type": "formula A", "coefficients": "6.7e-07 1.3e-08 -3.16e-10 7.17e-07 7.77e-10 0.224"}], "nd": 1.8061, "Vd": 40.7, "glass_code": 806407, "density": [{"value": 4170}], "thermal_expansion": [{"temperature_range": "243 343", "value": 6.7e-06}, {"temperature_range": "293 573", "value": "8e-06"}], "dPgF": -0.0087, "resistance": {"climatic": 1.0, "acid": 3.0}}
Dispersion formula 3, range 0.36 1.55 um, coefficients 3.1704478 -0.012872124 2 0.030711328 -2 0.00091467552 -4 -4.2179151e-05 -6 5.885503e-06 -8
wavelength (um)	k
0.310	1.5331E-05
0.320	1.0376E-05
0.330	4.7317E-06
0.340	2.3926E-06
0.350	1.3495E-06
0.360	8.0891E-07
0.370	5.0286E-07
0.380	3.2533E-07
0.390	2.1856E-07
0.400	1.5658E-07
0.420	9.4918E-08
0.440	7.4313E-08
0.460	5.5324E-08
0.480	3.4533E-08
0.500	2.3945E-08
0.550	8.7623E-09
0.600	9.5589E-09
0.650	1.0355E-08
0.700	1.1152E-08
0.800	1.2745E-08
1.060	1.6887E-08
1.500	2.3897E-08
2.000	2.4054E-07
