Material: specs / sumita / K-LaFn3
Optical constants. SUMITA Zemax catalog 2017-02-02 (obtained from http://www.sumita-opt.co.jp)See also SUMITA optical glass data book
Conditions: {"temperature": 293}
Properties: {"thermal_dispersion": [{"type": "formula A", "coefficients": "-3.22e-06 1.12e-08 -3.14e-10 6.46e-07 6.47e-10 0.204"}], "nd": 1.7, "Vd": 48.0, "glass_code": 700480, "density": [{"value": 4019}], "thermal_expansion": [{"temperature_range": "243 343", "value": 7.3e-06}, {"temperature_range": "293 573", "value": 9.6e-06}], "dPgF": -0.0034, "resistance": {"climatic": 1.0, "acid": 4.0}}
Dispersion formula 3, range 0.36 1.55 um, coefficients 2.827081 -0.010220727 2 0.021224097 -2 0.0006653956 -4 -3.3316539e-05 -6 3.16429e-06 -8
wavelength (um)	k
0.340	5.8754E-06
0.350	2.2426E-06
0.360	9.1338E-07
0.370	4.3724E-07
0.380	2.2270E-07
0.390	1.3641E-07
0.400	9.3675E-08
0.420	6.4114E-08
0.440	5.6476E-08
0.460	5.5324E-08
0.480	4.6114E-08
0.500	3.5972E-08
0.550	3.5155E-08
0.600	2.3933E-08
0.650	2.5928E-08
0.700	1.1152E-08
0.800	1.2745E-08
1.060	1.6887E-08
1.500	2.3897E-08
2.000	3.0530E-07
