Material: specs / sumita / K-LaSFn22
Optical constants. SUMITA Zemax catalog 2017-02-02 (obtained from http://www.sumita-opt.co.jp)See also SUMITA optical glass data book
Conditions: {"temperature": 293}
Properties: {"thermal_dispersion": [{"type": "formula A", "coefficients": "2.02e-06 1.36e-08 -2.8e-10 8.48e-07 8.18e-10 0.256"}], "nd": 1.898, "Vd": 34.0, "glass_code": 898340, "density": [{"value": 4920}], "thermal_expansion": [{"temperature_range": "243 343", "value": 5.7e-06}, {"temperature_range": "293 573", "value": 7.9e-06}], "resistance": {"climatic": 1.0, "acid": 1.0}}
Dispersion formula 3, range 0.4 1.55 um, coefficients 3.477103 -0.01493764 2 0.040192699 -2 0.0018404932 -4 -0.00010009344 -6 1.4346776e-05 -8
wavelength (um)	k
0.350	1.9240E-05
0.360	7.5375E-06
0.370	3.2822E-06
0.380	1.7211E-06
0.390	1.0238E-06
0.400	6.7862E-07
0.420	3.7076E-07
0.440	2.3907E-07
0.460	1.7238E-07
0.480	1.2029E-07
0.500	8.0384E-08
0.550	3.9569E-08
0.600	3.8351E-08
0.650	4.1547E-08
0.700	3.3523E-08
0.800	3.8312E-08
1.060	1.6887E-08
1.500	2.3897E-08
2.000	3.7033E-07
