Material: specs / sumita / K-PSFn2(M)
Optical constants. SUMITA Zemax catalog 2017-02-02 (obtained from http://www.sumita-opt.co.jp)See also SUMITA optical glass data book
Conditions: {"temperature": 293}
Properties: {"thermal_dispersion": [{"type": "formula A", "coefficients": "8.11e-06 2.15e-08 -1.06e-10 2.16e-06 2.01e-09 0.291"}], "nd": 1.9967, "Vd": 20.6, "density": [{"value": 5480}], "thermal_expansion": [{"temperature_range": "243 343", "value": 7.3e-06}, {"temperature_range": "293 573", "value": 9.2e-06}], "dPgF": 0.0255, "resistance": {"climatic": 1.0, "acid": 1.0}}
Dispersion formula 3, range 0.4 1.55 um, coefficients 3.7527514 -0.013079452 2 0.07043447 -2 0.0041015753 -4 -0.00012706916 -6 4.6413732e-05 -8
wavelength (um)	k
0.380	2.1456E-05
0.390	1.1376E-05
0.400	6.6764E-06
0.420	2.9408E-06
0.440	1.6254E-06
0.460	1.0839E-06
0.480	7.7428E-07
0.500	5.5524E-07
0.550	2.3531E-07
0.600	2.2439E-07
0.650	2.6059E-07
0.700	1.8662E-07
0.800	8.5053E-08
1.060	5.6291E-08
1.500	7.9657E-08
2.000	3.1927E-07
