Material: specs / sumita / K-PSFn214
Optical constants. SUMITA Zemax catalog 2017-02-02 (obtained from http://www.sumita-opt.co.jp)See also SUMITA optical glass data book
Conditions: {"temperature": 293}
Properties: {"thermal_dispersion": [{"type": "formula A", "coefficients": "1.6e-05 2.83e-08 -1.6e-10 3.11e-06 2.04e-09 0.316"}], "nd": 2.14355, "Vd": 17.8, "glass_code": 144178, "density": [{"value": 7060}], "thermal_expansion": [{"temperature_range": "243 343", "value": 8.3e-06}, {"temperature_range": "293 573", "value": 9.8e-06}], "dPgF": 0.0458, "resistance": {"climatic": 1.0, "acid": 3.0}}
Dispersion formula 3, range 0.4 1.55 um, coefficients 4.2741747 -0.015216929 2 0.086704477 -2 0.011238379 -4 -0.0013209006 -6 0.00017823575 -8
wavelength (um)	k
0.405	2.6483E-05
0.420	6.6807E-06
0.440	1.5053E-06
0.460	5.4905E-07
0.480	2.7023E-07
0.500	1.4670E-07
0.550	5.8474E-08
0.600	3.1863E-08
0.650	3.4518E-08
0.700	3.7173E-08
0.800	4.2484E-08
1.060	5.6291E-08
1.500	7.9657E-08
2.000	3.7267E-07
