Material: specs / sumita / K-PSFn215
Optical constants. SUMITA Zemax catalog 2017-02-02 (obtained from http://www.sumita-opt.co.jp)See also SUMITA optical glass data book
Conditions: {"temperature": 293}
Properties: {"thermal_dispersion": [{"type": "formula A", "coefficients": "1.64e-05 4.6e-08 -2.91e-10 3.47e-06 -3e-09 0.301"}], "nd": 2.154, "Vd": 17.2, "glass_code": 154172, "density": [{"value": 7100}], "thermal_expansion": [{"temperature_range": "243 343", "value": 8.6e-06}, {"temperature_range": "293 573", "value": 1.01e-05}], "dPgF": 0.0498, "resistance": {"climatic": 1.0, "acid": 5.0}}
Dispersion formula 3, range 0.4 1.55 um, coefficients 4.2994108 -0.014091413 2 0.097855062 -2 0.0076857652 -4 -0.00046786841 -6 0.00012218724 -8
wavelength (um)	k
0.400	1.9511E-05
0.420	8.5307E-06
0.440	1.7875E-06
0.460	6.1304E-07
0.480	2.7023E-07
0.500	1.3330E-07
0.550	2.9208E-08
0.600	3.1863E-08
0.650	5.1803E-08
0.700	5.5788E-08
0.800	4.2484E-08
1.060	5.6291E-08
1.500	7.9657E-08
2.000	3.7267E-07
