Material: specs / sumita / K-PSK11(M)
Optical constants. SUMITA Zemax catalog 2017-02-02 (obtained from http://www.sumita-opt.co.jp)See also SUMITA optical glass data book
Conditions: {"temperature": 293}
Properties: {"thermal_dispersion": [{"type": "formula A", "coefficients": "3.62e-07 2e-08 -2.86e-11 4.27e-07 1.78e-10 0.218"}], "nd": 1.55985, "Vd": 61.0, "glass_code": 566610, "density": [{"value": 3080}], "thermal_expansion": [{"temperature_range": "243 343", "value": 8.2e-06}, {"temperature_range": "293 573", "value": 9.3e-06}], "dPgF": 0.0036, "resistance": {"climatic": 2.0, "acid": 5.0}}
Dispersion formula 3, range 0.36 1.55 um, coefficients 2.3980346 -0.0090774696 2 0.012465635 -2 0.00027492499 -4 -9.3436202e-06 -6 7.809668e-07 -8
wavelength (um)	k
0.310	5.3570E-06
0.320	1.5976E-06
0.330	6.1238E-07
0.340	2.6112E-07
0.350	1.3408E-07
0.360	8.4307E-08
0.370	5.6481E-08
0.380	4.5703E-08
0.390	3.7468E-08
0.400	3.1991E-08
0.420	3.3591E-08
0.440	3.5190E-08
0.460	1.8349E-08
0.480	1.9146E-08
0.500	1.1955E-08
0.550	1.3150E-08
0.600	9.5589E-09
0.650	1.0355E-08
0.700	1.1152E-08
0.800	1.2745E-08
1.060	1.6887E-08
1.500	1.0792E-07
2.000	1.6063E-06
