Material: specs / sumita / K-SSK9
Optical constants. SUMITA Zemax catalog 2017-02-02 (obtained from http://www.sumita-opt.co.jp)See also SUMITA optical glass data book
Conditions: {"temperature": 293}
Properties: {"thermal_dispersion": [{"type": "formula A", "coefficients": "-3.89e-06 1.55e-08 -1.07e-10 6.07e-07 4.29e-10 0.203"}], "nd": 1.62012, "Vd": 49.8, "glass_code": 620498, "density": [{"value": 3290}], "thermal_expansion": [{"temperature_range": "243 343", "value": 8.3e-06}, {"temperature_range": "293 573", "value": 9.8e-06}], "dPgF": -0.0004, "resistance": {"climatic": 2.0, "acid": 3.0}}
Dispersion formula 3, range 0.36 1.55 um, coefficients 2.5737917 -0.0093452955 2 0.017645209 -2 0.00035765081 -4 1.1614434e-06 -6 1.16034e-06 -8
wavelength (um)	k
0.340	8.5771E-06
0.350	3.0963E-06
0.360	1.2341E-06
0.370	5.3800E-07
0.380	2.9184E-07
0.390	1.8214E-07
0.400	1.1340E-07
0.420	6.4114E-08
0.440	5.2919E-08
0.460	4.4192E-08
0.480	3.8389E-08
0.500	3.5972E-08
0.550	2.6340E-08
0.600	2.3933E-08
0.650	1.5541E-08
0.700	1.1152E-08
0.800	1.2745E-08
1.060	1.6887E-08
1.500	2.3897E-08
2.000	3.0530E-07
