Material: main / Nb2O5 / Franta
Optical constants. D. Franta, B. Hroncová, J. Dvořák, J. Vohánka, P Franta, I. Ohlídal, V. Pekař, D. Škoda. Wide spectral range optical characterization of niobium pentoxide (Nb2O5) films by universal dispersion model. Opt. Mat., 157, 116133 (2024) (Numerical data kindly provided by Jan Dvořák)
Comments: Nb2O5; Deposited by magnetron sputtering; Heterogenous data processing combining ellipsometric and spectrophotometric measurements of five samples with thicknesses between 20 and 250 nm; Room temperature.
Conditions: {"substrate": "c-Si"}
wavelength (um)	n	k
0.120051	1.21597313804	1.251165144
0.122565	1.27377976778	1.28913028326
0.125131	1.34079925083	1.3178537386
0.127752	1.4135570022	1.33324765023
0.130427	1.4860684494	1.33338293455
0.133158	1.55175059794	1.3204099445
0.135946	1.60697543731	1.30045867382
0.138793	1.65411699888	1.28007770145
0.141699	1.700381527	1.2595263645
0.144666	1.7472146734	1.2289929808
0.147695	1.77996991986	1.18385426206
0.150788	1.7881479912	1.13993796296
0.153945	1.78085732288	1.11182260611
0.157169	1.77014244252	1.10052929424
0.16046	1.76219405952	1.10190523779
0.16382	1.75929591107	1.1120625255
0.16725	1.76216925193	1.12822835508
0.170752	1.77099996887	1.14842848329
0.174328	1.78577785904	1.17114537692
0.177978	1.80637496681	1.19511218534
0.181705	1.83253630712	1.21922046724
0.18551	1.86385490795	1.24250937374
0.189394	1.89977041201	1.26420880857
0.19336	1.93961623167	1.28380501784
0.197409	1.98272310027	1.30108897712
0.201542	2.02856203809	1.31614762861
0.205763	2.0768856249	1.32927462731
0.210071	2.12781774049	1.3408081873
0.21447	2.18185639106	1.35093335931
0.218961	2.23978376953	1.35949783141
0.223546	2.30250420344	1.36588039466
0.228227	2.37084124274	1.3689307406
0.233006	2.44532069631	1.36698315969
0.237885	2.5259573403	1.35794230376
0.242866	2.61205992886	1.33944368496
0.247951	2.70207694766	1.30909607343
0.253143	2.7935216961	1.26480711798
0.258444	2.88302952937	1.20516998107
0.263856	2.96659604465	1.12984890721
0.269381	3.04000745068	1.03986176215
0.275021	3.09940424516	0.9376477978
0.28078	3.14184622667	0.826855127513
0.286659	3.16571917295	0.71187802963
0.292662	3.17087118608	0.597270687149
0.29879	3.15846853628	0.487202741666
0.305047	3.13065649795	0.385083384945
0.311434	3.09014958494	0.293397917765
0.317955	3.03984849947	0.213728206457
0.324613	2.98250694147	0.146927245919
0.331411	2.92051887709	0.0936086992547
0.33835	2.8566843776	0.0549161322309
0.345435	2.7961096368	0.0310146427921
0.352668	2.74343880809	0.0174671582143
0.360053	2.69859474369	0.00950008385728
0.367592	2.65961119049	0.00384332330302
0.375289	2.62481515129	0.000983528046784
0.383148	2.59476277754	0.000161289920498
0.391171	2.56884589975	1.89832716293e-05
0.399362	2.54607086518	2.4238548641e-06
0.407724	2.52573470659	7.36361667171e-07
0.416262	2.50738526058	5.08897690166e-07
0.424978	2.49070562226	4.80453023703e-07
0.433877	2.47545686933	4.97162328644e-07
0.442962	2.46145109217	5.27295993783e-07
0.452237	2.44853644092	5.62763480088e-07
0.461707	2.43658776863	6.0146787163e-07
0.471375	2.42550034342	6.42936888985e-07
0.481245	2.41518541933	6.87156617952e-07
0.491322	2.40556700762	7.34251238172e-07
0.50161	2.39657945947	7.84393262635e-07
0.512114	2.38816561701	8.37778191116e-07
0.522837	2.38027537359	8.94617620896e-07
0.533785	2.37286453567	9.55137794974e-07
0.544962	2.36589391132	1.01957981886e-06
0.556373	2.3593285717	1.08820042298e-06
0.568024	2.35313724679	1.16127294478e-06
0.579918	2.34729182635	1.23908842079e-06
0.592061	2.34176694442	1.32195676792e-06
0.604458	2.33653963085	1.41020804889e-06
0.617115	2.33158901701	1.5041938139e-06
0.630037	2.32689608581	1.60428854268e-06
0.64323	2.32244345793	1.71089117063e-06
0.656699	2.31821520833	1.82442672603e-06
0.67045	2.31419670772	1.94534807108e-06
0.684489	2.31037448507	2.07413776487e-06
0.698822	2.3067361079	2.21131004799e-06
0.713455	2.30327007751	2.35741296497e-06
0.728394	2.299965737	2.51303063129e-06
0.743646	2.29681319022	2.67878565466e-06
0.759218	2.29380323013	2.85534172278e-06
0.775115	2.29092727518	3.04340636932e-06
0.791346	2.28817731272	3.24373393342e-06
0.807916	2.28554584852	3.45712871988e-06
0.824834	2.28302586152	3.68444838357e-06
0.842105	2.28061076324	3.9266075491e-06
0.859738	2.27829436123	4.18458168096e-06
0.877741	2.27607082611	4.45941123461e-06
0.89612	2.27393466168	4.75220608679e-06
0.914885	2.27188067794	5.0641502951e-06
0.934042	2.26990396637	5.39650718259e-06
0.9536	2.2679998776	5.75062479597e-06
0.973568	2.26616400086	6.1279417486e-06
0.993954	2.2643921452	6.52999348519e-06
1.01477	2.26268032232	6.95841900302e-06
1.03602	2.26102473069	7.41496805714e-06
1.05771	2.25942174093	7.90150889235e-06
1.07986	2.25786788229	8.4200365438e-06
1.10247	2.25635983018	8.97268174646e-06
1.12555	2.25489439447	9.56172050344e-06
1.14912	2.25346850874	1.0189584371e-05
1.17318	2.25207922008	1.08588715065e-05
1.19775	2.25072367973	1.15723585496e-05
1.22283	2.24939913411	1.23330134043e-05
1.24844	2.24810291652	1.31440089876e-05
1.27458	2.24683243923	1.4008738034e-05
1.30127	2.24558518601	1.49308290354e-05
1.32851	2.24435870506	1.59141634192e-05
1.35633	2.24315060227	1.6962894061e-05
1.38473	2.24195853471	1.80814652518e-05
1.41373	2.24078020452	1.92746342374e-05
1.44333	2.23961335292	2.05474944737e-05
1.47355	2.2384557545	2.19055007419e-05
1.50441	2.23730521161	2.33544962867e-05
1.53591	2.236159549	2.49007421613e-05
1.56807	2.23501660852	2.65509489674e-05
1.60091	2.23387424393	2.83123112212e-05
1.63443	2.23273031583	3.01925445652e-05
1.66865	2.23158268665	3.21999261032e-05
1.70359	2.23042921565	3.43433381403e-05
1.73927	2.22926775393	3.66323156455e-05
1.77569	2.22809613955	3.9077097795e-05
1.81287	2.22691219249	4.1688683978e-05
1.85083	2.22571370971	4.44788947014e-05
1.88958	2.22449846003	4.7460437866e-05
1.92915	2.22326417906	5.06469809422e-05
1.96955	2.22200856395	5.40532296385e-05
2.01079	2.22072926807	5.76950137056e-05
2.05289	2.21942389553	6.15893806033e-05
2.09588	2.21808999559	6.57546978424e-05
2.13977	2.21672505685	7.02107648956e-05
2.18457	2.21532650126	7.49789356796e-05
2.23032	2.21389167789	8.00822527388e-05
2.27702	2.2124178565	8.55455943768e-05
2.3247	2.21090222074	9.13958361464e-05
2.37337	2.20934186113	9.76620282747e-05
2.42307	2.20773376765	0.000104375590791
2.47381	2.20607482196	0.000111570528355
2.52561	2.20436178925	0.000119283667029
2.5785	2.20259130955	0.000127554915512
2.63249	2.20075988866	0.000136427553708
2.68761	2.1988638884	0.000145948551864
2.74389	2.19689951639	0.000156168923911
2.80134	2.19486281508	0.000167144119209
2.86	2.19274965014	0.00017893445737
2.91989	2.19055569797	0.000191605611581
2.98103	2.18827643245	0.000205229146526
3.04345	2.18590711065	0.00021988311793
3.10718	2.18344275759	0.000235652741739
3.17224	2.18087814972	0.000252631142138
3.23867	2.1782077973	0.000270920188963
3.30648	2.17542592524	0.000290631436684
3.37572	2.17252645249	0.000311887178993
3.4464	2.16950296973	0.000334821635224
3.51857	2.16634871509	0.000359582287426
3.59225	2.16305654791	0.000386331389931
3.66747	2.15961892009	0.000415247676861
3.74426	2.15602784489	0.000446528297288
3.82267	2.15227486285	0.000480391012797
3.90271	2.14835100452	0.000517076698269
3.98443	2.14424674955	0.000556852193891
4.06786	2.13995198184	0.000600013565084
4.15304	2.13545594	0.00064688983749
4.24	2.13074716293	0.0006978472867
4.32879	2.12581342939	0.000753294377838
4.41943	2.12064169122	0.000813687468598
4.51197	2.11521799911	0.00087953741227
4.60645	2.10952741984	0.000951417225235
4.70291	2.10355394396	0.00102997101798
4.80138	2.09728038235	0.00111592443165
4.90192	2.09068825023	0.00121009687546
5.00456	2.08375763621	0.00131341592756
5.10936	2.07646705468	0.00142693434626
5.21635	2.06879327821	0.00155185024591
5.32557	2.06071114697	0.00168953112855
5.43709	2.05219335123	0.00184154263864
5.55094	2.04321018172	0.00200968313705
5.66717	2.0337292425	0.0021960254879
5.78584	2.0237151187	0.00240296784714
5.90699	2.01312899046	0.00263329576527
6.03068	2.00192818187	0.00289025862447
6.15696	1.99006563132	0.00317766439559
6.28588	1.97748926503	0.0034999980389
6.41751	1.96414125216	0.00386257075962
6.55189	1.94995711142	0.00427171005777
6.68908	1.9348646323	0.00473500456397
6.82914	1.91878255969	0.00526162390548
6.97214	1.90161897444	0.00586274387607
7.11814	1.88326927858	0.00655212386346
7.26719	1.86361366369	0.00734691181163
7.41936	1.8425138982	0.00826879995554
7.57472	1.81980922908	0.00934573314492
7.73333	1.7953111585	0.0106144924782
7.89526	1.76879684941	0.01212464522
8.06058	1.74000098126	0.0139445510183
8.22936	1.70860601843	0.0161702819269
8.40168	1.67423107198	0.0189383038214
8.57761	1.63641960123	0.0224422827489
8.75722	1.59462541543	0.0269527954039
8.94059	1.54819214256	0.0328345858805
9.1278	1.49630178801	0.0405475503503
9.31894	1.43778774032	0.0506279710922
9.51407	1.37052310168	0.0638801309265
9.71329	1.29039341842	0.0829399985883
9.91668	1.19261285647	0.116761961447
10.1243	1.08151811859	0.183590642362
10.3363	0.984463975887	0.296138028945
10.5528	0.933613461598	0.430638798122
10.7737	0.919393453238	0.547837781221
10.9993	0.911615011808	0.642525561547
11.2297	0.899080555177	0.72918825832
11.4648	0.885224087427	0.815607733372
11.7049	0.872353505616	0.900522226865
11.95	0.85666471645	0.98192545428
12.2002	0.831005289848	1.06257527873
12.4556	0.788951608618	1.15219525207
12.7165	0.73070805327	1.26829896357
12.9827	0.672449015297	1.43105878164
13.2546	0.649171042225	1.64539440003
13.5321	0.694153477023	1.88451294807
13.8155	0.80956306886	2.10331063684
14.1048	0.965459005155	2.27306553162
14.4001	1.12923149409	2.39631217992
14.7017	1.28683788186	2.49011761131
15.0095	1.43936091016	2.56744699123
15.3238	1.59222113315	2.63252497917
15.6447	1.74899087901	2.6837395827
15.9723	1.90973850018	2.71725881775
16.3067	2.07135835768	2.72942992719
16.6482	2.22840352399	2.71812491747
16.9968	2.37389556213	2.68358645664
17.3527	2.5001684008	2.62930853062
17.716	2.60044809036	2.56326036341
18.087	2.67264454993	2.49853566788
18.4657	2.7253525155	2.44924094183
18.8524	2.77750585825	2.41804947681
19.2471	2.84154307841	2.38967224983
19.6502	2.91038954787	2.34754444933
20.0616	2.96919887176	2.28960672408
20.4817	3.00929346674	2.22379524772
20.9106	3.02946797678	2.15903512761
21.3484	3.03241457163	2.10172133871
21.7955	3.02209720905	2.05563432161
22.2519	3.00256071336	2.02264344273
22.7178	2.97748225652	2.00332401372
23.1935	2.95001522672	1.99738577604
23.6792	2.92274093347	2.00397362595
24.175	2.89766831271	2.02189763918
24.6812	2.87626802344	2.04982208527
25.198	2.85953982319	2.08642248324
25.7256	2.84811163949	2.13050812807
26.2643	2.8423645221	2.18110234806
26.8143	2.84257202116	2.23747262771
27.3758	2.84903773109	2.29910549052
27.949	2.86221066166	2.3656267206
28.5342	2.88275659655	2.4366756952
29.1317	2.911565543	2.51175378401
29.7417	2.94968498942	2.59007676724
30.3645	2.99818391194	2.67046709994
31.0003	3.05797167868	2.75131706747
31.6495	3.12961021315	2.83063866812
32.3122	3.21316147072	2.90619375076
32.9888	3.3081022225	2.9756780955
33.6796	3.41332006136	3.03692211168
34.3848	3.52718465489	3.08807246757
35.1048	3.64767473963	3.12772868184
35.8399	3.77253532295	3.15502217886
36.5903	3.89944058964	3.16963724626
37.3565	4.02614326344	3.17178152641
38.1387	4.15059726071	3.16211850199
38.9373	4.27104718038	3.14167541711
39.7527	4.38608289125	3.11173971077
40.5851	4.4946616294	3.07375482285
41.4349	4.59610190101	3.02922415368
42.3025	4.69005600384	2.97962847849
43.1883	4.77646723186	2.92636047939
44.0927	4.85551806999	2.87067749826
45.0159	4.92757535239	2.81367165631
45.9585	4.99313607902	2.75625598949
46.9209	5.05277866467	2.69916313984
47.9034	5.10712005661	2.64295463075
48.9065	5.15678121016	2.58803692682
49.9305	5.20236078062	2.53468175255
50.9761	5.24441613892	2.48304852851
52.0435	5.28345188753	2.43320652129
53.1332	5.31991355701	2.3851559284
54.2458	5.35418640008	2.33884645807
55.3817	5.38659682651	2.29419351169
56.5414	5.41741691824	2.25109113684
57.7253	5.44686961425	2.20942251363
58.9341	5.47513499842	2.16906771743
60.1681	5.50235687251	2.12990923669
61.428	5.52864816865	2.091836033
62.7143	5.55409674501	2.05474579645
64.0275	5.5787705796	2.01854609648
65.3682	5.60272151303	1.98315500327
66.7369	5.62598920683	1.94850080449
68.1344	5.64860357875	1.91452166332
69.5611	5.67058702946	1.88116490482
71.0177	5.69195832877	1.84838547784
72.5047	5.71273175511	1.81614583471
74.0229	5.73291798214	1.78441507418
75.5729	5.75252790584	1.75316714153
77.1554	5.77157047214	1.72238093422
78.771	5.79005389359	1.69203933373
80.4204	5.80798666008	1.66212836659
82.1044	5.82537712942	1.63263683717
83.8236	5.84223430022	1.60355566533
85.5788	5.85856719131	1.57487767268
87.3708	5.87438426744	1.54659738225
89.2003	5.8896965213	1.51870990227
91.0681	5.90451203564	1.4912121031
92.975	5.91884281111	1.46410062515
94.9219	5.93269836549	1.43737333951
96.9095	5.9460908585	1.41102790686
98.9387	5.95902907339	1.38506310716
101.01	5.97152603957	1.35947691092
103.126	5.98359159052	1.33426814875
105.285	5.99523913291	1.30943488383
107.49	6.00647679719	1.28497632716
109.74	6.01731830462	1.26089039595
112.038	6.02777645206	1.23717513778
114.384	6.03785880635	1.21382954741
116.779	6.04757955023	1.19085110549
119.225	6.05694532871	1.16823863183
121.721	6.06596992765	1.14598935267
124.27	6.07466739299	1.12410031207
126.872	6.08304275057	1.10257005647
129.529	6.09110796824	1.08139563332
132.241	6.0988733434	1.0605742245
135.01	6.10635185585	1.04010238085
137.837	6.11354744833	1.01997803264
140.723	6.12047373433	1.00019728514
143.67	6.12713881288	0.980757025849
146.678	6.13355388688	0.961653490914
149.75	6.13972268556	0.942883951664
152.886	6.14565191551	0.924445035099
156.087	6.15136150005	0.906331276207
159.355	6.15685709734	0.888539296594
162.692	6.16212436393	0.871068408696
166.099	6.16719962046	0.853910554559
169.577	6.17207719938	0.837063615015
173.128	6.17677613436	0.82052196083
176.753	6.18127739334	0.804284974237
180.454	6.18561065727	0.788345484878
184.233	6.18977538581	0.772700284195
188.09	6.19377775323	0.757345219215
192.029	6.19762379478	0.742276110336
196.05	6.20131935085	0.727488764823
200.155	6.20487011694	0.712978976913
204.346	6.20828151166	0.69874254875
208.625	6.21155881492	0.684775279303
212.993	6.21470709532	0.671072977643
217.453	6.21773133305	0.657631454182
222.007	6.22063619409	0.644446549336
226.656	6.22342628719	0.631514109918
231.402	6.22610603139	0.618830007238
236.247	6.22867967009	0.606390138932
241.194	6.23115125018	0.594190434026
246.244	6.23352476951	0.582226841737
251.401	6.23580401866	0.570495349722
256.665	6.23799262372	0.558991982189
262.039	6.24009412168	0.547712795425
267.526	6.24211200719	0.536653876366
273.128	6.24404938456	0.525811374662
278.847	6.24590953237	0.515181455604
284.686	6.24769538388	0.504760346299
290.647	6.24940992091	0.494544304064
296.733	6.25105586035	0.484529643412
302.947	6.25263598085	0.47471271119
309.29	6.25415294095	0.465089902502
315.767	6.25560910662	0.455657674055
322.379	6.25700687741	0.446412520248
329.129	6.25834862758	0.437350978977
336.021	6.25963663697	0.428469637468
343.057	6.26087286059	0.419765148167
350.24	6.26205956434	0.411234185769
357.574	6.26319832991	0.402873514254
365.062	6.26429154789	0.394679889041
372.706	6.26534087579	0.386650158153
380.51	6.26634769175	0.378781230616
388.478	6.26731422389	0.371070008401
396.612	6.26824193699	0.363513485655
