Material: resists / Nanoscribe IP-Dip / Mavrona-uncured
Optical constants. E. Mavrona, A. Theodosi, K. Mackosz, E. Perivolari, I. Utke, J. Michler, J. Schwiedrzik, M. Kafesaki, O. Tsilipakos, A. Xomalis. Refractive index measurement of IP-S and IP-Dip photoresists at THz frequencies and validation via 3D photonic metamaterials made by direct laser writing. Opt. Mater. Express, 13, 3355-3364 (2023) (Numerical data kindly provided by Angelos Xomalis)
Comments: Nanoscribe IP-Dip photoresist for direct laser writing. Uncured.
wavelength (um)	n	k
199.861	1.69237561	8.97958E-02
200.268	1.69242748	8.97830E-02
200.678	1.69248137	8.97707E-02
201.089	1.69253736	8.97587E-02
201.501	1.69259556	8.97468E-02
201.916	1.69265612	8.97347E-02
202.332	1.69271921	8.97225E-02
202.750	1.69278498	8.97101E-02
203.169	1.69285362	8.96976E-02
203.591	1.69292523	8.96849E-02
204.014	1.69299991	8.96724E-02
204.439	1.69307770	8.96601E-02
204.865	1.69315858	8.96482E-02
205.294	1.69324250	8.96369E-02
205.724	1.69332933	8.96264E-02
206.156	1.69341891	8.96168E-02
206.590	1.69351107	8.96083E-02
207.025	1.69360559	8.96009E-02
207.463	1.69370228	8.95946E-02
207.902	1.69380094	8.95894E-02
208.344	1.69390140	8.95853E-02
208.787	1.69400353	8.95820E-02
209.232	1.69410722	8.95797E-02
209.679	1.69421244	8.95780E-02
210.127	1.69431917	8.95769E-02
210.578	1.69442744	8.95763E-02
211.031	1.69453732	8.95761E-02
211.485	1.69464891	8.95763E-02
211.942	1.69476230	8.95768E-02
212.400	1.69487761	8.95777E-02
212.861	1.69499493	8.95791E-02
213.324	1.69511434	8.95811E-02
213.788	1.69523590	8.95836E-02
214.255	1.69535963	8.95870E-02
214.723	1.69548553	8.95912E-02
215.194	1.69561356	8.95964E-02
215.667	1.69574369	8.96026E-02
216.142	1.69587584	8.96100E-02
216.618	1.69600994	8.96184E-02
217.097	1.69614593	8.96280E-02
217.579	1.69628376	8.96385E-02
218.062	1.69642343	8.96500E-02
218.547	1.69656493	8.96624E-02
219.035	1.69670834	8.96754E-02
219.525	1.69685374	8.96890E-02
220.017	1.69700127	8.97032E-02
220.511	1.69715108	8.97177E-02
221.007	1.69730335	8.97326E-02
221.506	1.69745828	8.97478E-02
222.007	1.69761605	8.97633E-02
222.510	1.69777683	8.97792E-02
223.016	1.69794078	8.97956E-02
223.523	1.69810801	8.98124E-02
224.034	1.69827859	8.98299E-02
224.546	1.69845255	8.98480E-02
225.061	1.69862988	8.98668E-02
225.578	1.69881055	8.98864E-02
226.097	1.69899447	8.99065E-02
226.619	1.69918159	8.99273E-02
227.144	1.69937180	8.99484E-02
227.670	1.69956506	8.99698E-02
228.200	1.69976133	8.99911E-02
228.731	1.69996061	9.00119E-02
229.265	1.70016296	9.00321E-02
229.802	1.70036847	9.00512E-02
230.341	1.70057732	9.00689E-02
230.883	1.70078969	9.00848E-02
231.427	1.70100583	9.00986E-02
231.974	1.70122601	9.01102E-02
232.524	1.70145048	9.01193E-02
233.076	1.70167950	9.01257E-02
233.630	1.70191330	9.01294E-02
234.188	1.70215204	9.01303E-02
234.748	1.70239582	9.01284E-02
235.310	1.70264467	9.01237E-02
235.876	1.70289852	9.01162E-02
236.444	1.70315722	9.01059E-02
237.015	1.70342054	9.00927E-02
237.588	1.70368816	9.00766E-02
238.165	1.70395972	9.00574E-02
238.744	1.70423479	9.00347E-02
239.326	1.70451296	9.00084E-02
239.911	1.70479378	8.99779E-02
240.498	1.70507686	8.99428E-02
241.089	1.70536183	8.99025E-02
241.683	1.70564838	8.98565E-02
242.279	1.70593626	8.98042E-02
242.878	1.70622531	8.97451E-02
243.481	1.70651541	8.96787E-02
244.086	1.70680649	8.96046E-02
244.695	1.70709851	8.95224E-02
245.306	1.70739147	8.94319E-02
245.921	1.70768533	8.93330E-02
246.538	1.70798002	8.92258E-02
247.159	1.70827542	8.91104E-02
247.783	1.70857132	8.89869E-02
248.410	1.70886742	8.88558E-02
249.040	1.70916334	8.87174E-02
249.673	1.70945857	8.85720E-02
250.310	1.70975251	8.84201E-02
250.950	1.71004451	8.82621E-02
251.593	1.71033383	8.80983E-02
252.239	1.71061972	8.79290E-02
252.889	1.71090142	8.77544E-02
253.542	1.71117818	8.75747E-02
254.199	1.71144935	8.73901E-02
254.858	1.71171430	8.72005E-02
255.522	1.71197256	8.70060E-02
256.189	1.71222375	8.68067E-02
256.859	1.71246760	8.66025E-02
257.533	1.71270399	8.63936E-02
258.210	1.71293290	8.61802E-02
258.891	1.71315442	8.59623E-02
259.576	1.71336873	8.57405E-02
260.264	1.71357605	8.55150E-02
260.956	1.71377664	8.52863E-02
261.651	1.71397077	8.50551E-02
262.350	1.71415869	8.48221E-02
263.053	1.71434062	8.45878E-02
263.760	1.71451673	8.43532E-02
264.471	1.71468711	8.41189E-02
265.185	1.71485183	8.38857E-02
265.903	1.71501087	8.36542E-02
266.625	1.71516418	8.34251E-02
267.352	1.71531169	8.31987E-02
268.082	1.71545332	8.29756E-02
268.816	1.71558903	8.27559E-02
269.554	1.71571879	8.25400E-02
270.296	1.71584263	8.23279E-02
271.042	1.71596069	8.21195E-02
271.793	1.71607316	8.19149E-02
272.547	1.71618032	8.17140E-02
273.306	1.71628255	8.15167E-02
274.069	1.71638028	8.13229E-02
274.836	1.71647401	8.11326E-02
275.608	1.71656428	8.09459E-02
276.384	1.71665163	8.07627E-02
277.164	1.71673659	8.05832E-02
277.949	1.71681967	8.04076E-02
278.738	1.71690132	8.02361E-02
279.532	1.71698191	8.00690E-02
280.330	1.71706174	7.99063E-02
281.133	1.71714103	7.97485E-02
281.940	1.71721993	7.95957E-02
282.752	1.71729850	7.94480E-02
283.569	1.71737677	7.93055E-02
284.390	1.71745470	7.91682E-02
285.216	1.71753228	7.90359E-02
286.047	1.71760945	7.89087E-02
286.883	1.71768623	7.87861E-02
287.724	1.71776265	7.86679E-02
288.570	1.71783879	7.85539E-02
289.421	1.71791482	7.84435E-02
290.276	1.71799094	7.83366E-02
291.137	1.71806743	7.82327E-02
292.003	1.71814463	7.81316E-02
292.874	1.71822288	7.80330E-02
293.751	1.71830258	7.79369E-02
294.632	1.71838408	7.78430E-02
295.519	1.71846776	7.77515E-02
296.411	1.71855390	7.76625E-02
297.309	1.71864277	7.75759E-02
298.212	1.71873453	7.74919E-02
299.121	1.71882928	7.74109E-02
300.035	1.71892704	7.73328E-02
300.955	1.71902774	7.72580E-02
301.880	1.71913124	7.71864E-02
302.811	1.71923736	7.71182E-02
303.748	1.71934587	7.70534E-02
304.691	1.71945651	7.69919E-02
305.640	1.71956904	7.69336E-02
306.594	1.71968323	7.68784E-02
307.555	1.71979887	7.68258E-02
308.521	1.71991582	7.67758E-02
309.494	1.72003398	7.67279E-02
310.473	1.72015330	7.66818E-02
311.458	1.72027379	7.66374E-02
312.449	1.72039550	7.65942E-02
313.447	1.72051853	7.65520E-02
314.451	1.72064299	7.65106E-02
315.461	1.72076902	7.64700E-02
316.478	1.72089674	7.64299E-02
317.502	1.72102626	7.63903E-02
318.532	1.72115768	7.63512E-02
319.569	1.72129104	7.63125E-02
320.612	1.72142637	7.62744E-02
321.663	1.72156367	7.62367E-02
322.720	1.72170289	7.61995E-02
323.785	1.72184396	7.61629E-02
324.856	1.72198680	7.61266E-02
325.935	1.72213132	7.60908E-02
327.020	1.72227743	7.60553E-02
328.113	1.72242505	7.60201E-02
329.214	1.72257412	7.59849E-02
330.321	1.72272460	7.59498E-02
331.436	1.72287647	7.59145E-02
332.559	1.72302974	7.58790E-02
333.690	1.72318443	7.58431E-02
334.828	1.72334060	7.58069E-02
335.974	1.72349830	7.57701E-02
337.127	1.72365757	7.57330E-02
338.289	1.72381848	7.56953E-02
339.459	1.72398106	7.56573E-02
340.637	1.72414533	7.56188E-02
341.823	1.72431127	7.55801E-02
343.017	1.72447886	7.55412E-02
344.220	1.72464805	7.55021E-02
345.431	1.72481874	7.54630E-02
346.651	1.72499084	7.54239E-02
347.879	1.72516424	7.53849E-02
349.116	1.72533881	7.53460E-02
350.362	1.72551442	7.53072E-02
351.617	1.72569097	7.52685E-02
352.881	1.72586832	7.52299E-02
354.154	1.72604638	7.51915E-02
355.436	1.72622504	7.51532E-02
356.728	1.72640421	7.51149E-02
358.029	1.72658382	7.50767E-02
359.339	1.72676378	7.50386E-02
360.659	1.72694401	7.50006E-02
361.989	1.72712443	7.49626E-02
363.329	1.72730493	7.49247E-02
364.679	1.72748542	7.48869E-02
366.038	1.72766577	7.48492E-02
367.408	1.72784587	7.48115E-02
368.788	1.72802559	7.47739E-02
370.179	1.72820482	7.47362E-02
371.580	1.72838343	7.46985E-02
372.992	1.72856135	7.46605E-02
374.415	1.72873850	7.46222E-02
375.848	1.72891485	7.45835E-02
377.292	1.72909042	7.45441E-02
378.748	1.72926524	7.45040E-02
380.215	1.72943941	7.44631E-02
381.693	1.72961306	7.44212E-02
383.183	1.72978634	7.43783E-02
384.684	1.72995944	7.43344E-02
386.198	1.73013256	7.42895E-02
387.723	1.73030588	7.42438E-02
389.260	1.73047959	7.41973E-02
390.810	1.73065383	7.41504E-02
392.372	1.73082872	7.41031E-02
393.947	1.73100430	7.40559E-02
395.534	1.73118058	7.40089E-02
397.134	1.73135750	7.39625E-02
398.747	1.73153495	7.39170E-02
400.373	1.73171276	7.38725E-02
402.013	1.73189072	7.38292E-02
403.666	1.73206860	7.37873E-02
405.332	1.73224615	7.37469E-02
407.013	1.73242312	7.37080E-02
408.707	1.73259929	7.36706E-02
410.416	1.73277445	7.36345E-02
412.139	1.73294846	7.35997E-02
413.876	1.73312119	7.35660E-02
415.629	1.73329262	7.35333E-02
417.396	1.73346272	7.35014E-02
419.178	1.73363155	7.34701E-02
420.975	1.73379919	7.34395E-02
422.788	1.73396575	7.34093E-02
424.617	1.73413134	7.33797E-02
426.462	1.73429610	7.33506E-02
428.322	1.73446011	7.33221E-02
430.199	1.73462346	7.32943E-02
432.093	1.73478620	7.32673E-02
434.003	1.73494832	7.32412E-02
435.930	1.73510981	7.32162E-02
437.875	1.73527059	7.31924E-02
439.836	1.73543056	7.31697E-02
441.816	1.73558961	7.31484E-02
443.813	1.73574762	7.31284E-02
445.829	1.73590447	7.31096E-02
447.863	1.73606003	7.30920E-02
449.915	1.73621424	7.30755E-02
451.987	1.73636702	7.30601E-02
454.077	1.73651836	7.30454E-02
456.187	1.73666828	7.30315E-02
458.317	1.73681682	7.30182E-02
460.467	1.73696405	7.30054E-02
462.637	1.73711007	7.29931E-02
464.827	1.73725498	7.29810E-02
467.038	1.73739890	7.29694E-02
469.271	1.73754193	7.29581E-02
471.525	1.73768415	7.29471E-02
473.801	1.73782562	7.29366E-02
476.098	1.73796638	7.29265E-02
478.419	1.73810644	7.29170E-02
480.761	1.73824578	7.29080E-02
483.127	1.73838438	7.28995E-02
485.517	1.73852220	7.28916E-02
487.930	1.73865918	7.28842E-02
490.367	1.73879530	7.28772E-02
492.829	1.73893052	7.28706E-02
495.315	1.73906486	7.28642E-02
497.827	1.73919834	7.28579E-02
500.364	1.73933103	7.28516E-02
502.928	1.73946302	7.28451E-02
505.517	1.73959444	7.28384E-02
508.134	1.73972543	7.28313E-02
510.778	1.73985615	7.28238E-02
513.449	1.73998677	7.28158E-02
516.149	1.74011746	7.28074E-02
518.877	1.74024838	7.27985E-02
521.634	1.74037967	7.27892E-02
524.420	1.74051147	7.27796E-02
527.237	1.74064389	7.27696E-02
530.084	1.74077703	7.27593E-02
532.961	1.74091100	7.27488E-02
535.871	1.74104587	7.27381E-02
538.812	1.74118176	7.27272E-02
541.785	1.74131877	7.27161E-02
544.792	1.74145702	7.27049E-02
547.832	1.74159665	7.26935E-02
550.906	1.74173782	7.26821E-02
554.015	1.74188069	7.26707E-02
557.159	1.74202544	7.26594E-02
560.340	1.74217222	7.26483E-02
563.556	1.74232116	7.26377E-02
566.810	1.74247236	7.26277E-02
570.102	1.74262586	7.26187E-02
573.432	1.74278163	7.26108E-02
576.801	1.74293960	7.26043E-02
580.210	1.74309960	7.25994E-02
583.659	1.74326140	7.25963E-02
587.150	1.74342473	7.25951E-02
590.683	1.74358927	7.25956E-02
594.258	1.74375472	7.25979E-02
597.877	1.74392078	7.26016E-02
601.541	1.74408725	7.26064E-02
605.250	1.74425399	7.26118E-02
609.004	1.74442100	7.26174E-02
612.806	1.74458843	7.26225E-02
616.655	1.74475660	7.26265E-02
620.553	1.74492601	7.26291E-02
624.501	1.74509729	7.26296E-02
628.499	1.74527123	7.26280E-02
632.548	1.74544871	7.26239E-02
636.650	1.74563066	7.26177E-02
640.806	1.74581799	7.26095E-02
645.016	1.74601156	7.25999E-02
649.282	1.74621209	7.25897E-02
653.605	1.74642011	7.25797E-02
657.986	1.74663593	7.25710E-02
662.426	1.74685962	7.25647E-02
666.926	1.74709098	7.25616E-02
671.488	1.74732957	7.25628E-02
676.112	1.74757473	7.25690E-02
680.801	1.74782564	7.25807E-02
685.555	1.74808142	7.25982E-02
690.376	1.74834114	7.26215E-02
695.265	1.74860398	7.26501E-02
700.225	1.74886925	7.26836E-02
705.255	1.74913650	7.27213E-02
710.358	1.74940557	7.27621E-02
715.536	1.74967660	7.28051E-02
720.789	1.74995008	7.28494E-02
726.120	1.75022680	7.28943E-02
731.531	1.75050782	7.29392E-02
737.023	1.75079439	7.29838E-02
742.598	1.75108788	7.30284E-02
748.258	1.75138965	7.30734E-02
754.005	1.75170094	7.31197E-02
759.841	1.75202278	7.31686E-02
765.768	1.75235586	7.32217E-02
771.788	1.75270047	7.32805E-02
777.904	1.75305645	7.33470E-02
784.117	1.75342316	7.34229E-02
790.431	1.75379953	7.35095E-02
796.846	1.75418409	7.36082E-02
803.367	1.75457509	7.37195E-02
809.996	1.75497064	7.38437E-02
816.734	1.75536885	7.39804E-02
823.586	1.75576803	7.41286E-02
830.554	1.75616680	7.42868E-02
837.641	1.75656433	7.44530E-02
844.849	1.75696037	7.46251E-02
852.183	1.75735541	7.48007E-02
859.645	1.75775067	7.49777E-02
867.239	1.75814809	7.51541E-02
874.969	1.75855023	7.53285E-02
882.837	1.75896015	7.55002E-02
890.848	1.75938118	7.56693E-02
899.006	1.75981672	7.58368E-02
907.315	1.76026999	7.60046E-02
915.779	1.76074374	7.61754E-02
924.402	1.76124010	7.63527E-02
933.189	1.76176031	7.65404E-02
942.145	1.76230465	7.67425E-02
951.274	1.76287237	7.69634E-02
960.582	1.76346172	7.72067E-02
970.074	1.76407008	7.74756E-02
979.755	1.76469414	7.77725E-02
989.632	1.76533017	7.80986E-02
