Material: resists / Nanoscribe IP-Dip / Mavrona-cured
Optical constants. E. Mavrona, A. Theodosi, K. Mackosz, E. Perivolari, I. Utke, J. Michler, J. Schwiedrzik, M. Kafesaki, O. Tsilipakos, A. Xomalis. Refractive index measurement of IP-S and IP-Dip photoresists at THz frequencies and validation via 3D photonic metamaterials made by direct laser writing. Opt. Mater. Express, 13, 3355-3364 (2023) (Numerical data kindly provided by Angelos Xomalis)
Comments: Nanoscribe IP-Dip photoresist for direct laser writing. Cured.
wavelength (um)	n	k
199.861	1.58555722	6.23704E-02
200.268	1.58561086	6.23483E-02
200.678	1.58566599	6.23276E-02
201.089	1.58572240	6.23078E-02
201.501	1.58577995	6.22889E-02
201.916	1.58583854	6.22704E-02
202.332	1.58589816	6.22523E-02
202.750	1.58595882	6.22341E-02
203.169	1.58602060	6.22158E-02
203.591	1.58608361	6.21972E-02
204.014	1.58614797	6.21781E-02
204.439	1.58621381	6.21585E-02
204.865	1.58628126	6.21384E-02
205.294	1.58635043	6.21179E-02
205.724	1.58642138	6.20970E-02
206.156	1.58649417	6.20758E-02
206.590	1.58656880	6.20544E-02
207.025	1.58664527	6.20330E-02
207.463	1.58672351	6.20115E-02
207.902	1.58680348	6.19900E-02
208.344	1.58688509	6.19686E-02
208.787	1.58696828	6.19474E-02
209.232	1.58705298	6.19262E-02
209.679	1.58713916	6.19051E-02
210.127	1.58722678	6.18841E-02
210.578	1.58731586	6.18631E-02
211.031	1.58740641	6.18421E-02
211.485	1.58749850	6.18211E-02
211.942	1.58759218	6.18002E-02
212.400	1.58768752	6.17792E-02
212.861	1.58778458	6.17584E-02
213.324	1.58788344	6.17378E-02
213.788	1.58798412	6.17175E-02
214.255	1.58808664	6.16976E-02
214.723	1.58819099	6.16784E-02
215.194	1.58829713	6.16597E-02
215.667	1.58840499	6.16419E-02
216.142	1.58851448	6.16249E-02
216.618	1.58862549	6.16089E-02
217.097	1.58873791	6.15937E-02
217.579	1.58885164	6.15795E-02
218.062	1.58896658	6.15661E-02
218.547	1.58908267	6.15534E-02
219.035	1.58919988	6.15413E-02
219.525	1.58931821	6.15296E-02
220.017	1.58943771	6.15183E-02
220.511	1.58955845	6.15072E-02
221.007	1.58968055	6.14961E-02
221.506	1.58980415	6.14850E-02
222.007	1.58992943	6.14737E-02
222.510	1.59005655	6.14623E-02
223.016	1.59018569	6.14507E-02
223.523	1.59031701	6.14389E-02
224.034	1.59045064	6.14269E-02
224.546	1.59058671	6.14149E-02
225.061	1.59072530	6.14027E-02
225.578	1.59086647	6.13906E-02
226.097	1.59101025	6.13785E-02
226.619	1.59115663	6.13664E-02
227.144	1.59130560	6.13543E-02
227.670	1.59145714	6.13421E-02
228.200	1.59161122	6.13298E-02
228.731	1.59176781	6.13172E-02
229.265	1.59192689	6.13042E-02
229.802	1.59208849	6.12906E-02
230.341	1.59225260	6.12762E-02
230.883	1.59241929	6.12609E-02
231.427	1.59258862	6.12443E-02
231.974	1.59276066	6.12264E-02
232.524	1.59293549	6.12069E-02
233.076	1.59311322	6.11856E-02
233.630	1.59329392	6.11625E-02
234.188	1.59347767	6.11373E-02
234.748	1.59366451	6.11099E-02
235.310	1.59385447	6.10803E-02
235.876	1.59404755	6.10483E-02
236.444	1.59424370	6.10137E-02
237.015	1.59444287	6.09766E-02
237.588	1.59464494	6.09366E-02
238.165	1.59484979	6.08937E-02
238.744	1.59505726	6.08477E-02
239.326	1.59526721	6.07983E-02
239.911	1.59547944	6.07454E-02
240.498	1.59569379	6.06887E-02
241.089	1.59591007	6.06279E-02
241.683	1.59612811	6.05629E-02
242.279	1.59634774	6.04933E-02
242.878	1.59656881	6.04190E-02
243.481	1.59679113	6.03397E-02
244.086	1.59701456	6.02553E-02
244.695	1.59723892	6.01655E-02
245.306	1.59746403	6.00703E-02
245.921	1.59768968	5.99696E-02
246.538	1.59791565	5.98634E-02
247.159	1.59814168	5.97516E-02
247.783	1.59836747	5.96343E-02
248.410	1.59859271	5.95115E-02
249.040	1.59881704	5.93833E-02
249.673	1.59904008	5.92498E-02
250.310	1.59926142	5.91110E-02
250.950	1.59948065	5.89670E-02
251.593	1.59969734	5.88180E-02
252.239	1.59991107	5.86639E-02
252.889	1.60012144	5.85048E-02
253.542	1.60032808	5.83408E-02
254.199	1.60053064	5.81720E-02
254.858	1.60072881	5.79985E-02
255.522	1.60092234	5.78203E-02
256.189	1.60111102	5.76376E-02
256.859	1.60129470	5.74504E-02
257.533	1.60147328	5.72590E-02
258.210	1.60164667	5.70636E-02
258.891	1.60181488	5.68645E-02
259.576	1.60197790	5.66619E-02
260.264	1.60213577	5.64561E-02
260.956	1.60228855	5.62477E-02
261.651	1.60243630	5.60369E-02
262.350	1.60257906	5.58242E-02
263.053	1.60271691	5.56102E-02
263.760	1.60284987	5.53952E-02
264.471	1.60297798	5.51798E-02
265.185	1.60310125	5.49645E-02
265.903	1.60321968	5.47495E-02
266.625	1.60333325	5.45355E-02
267.352	1.60344195	5.43227E-02
268.082	1.60354574	5.41114E-02
268.816	1.60364461	5.39019E-02
269.554	1.60373858	5.36945E-02
270.296	1.60382764	5.34892E-02
271.042	1.60391187	5.32862E-02
271.793	1.60399135	5.30855E-02
272.547	1.60406621	5.28872E-02
273.306	1.60413663	5.26913E-02
274.069	1.60420282	5.24976E-02
274.836	1.60426504	5.23062E-02
275.608	1.60432360	5.21171E-02
276.384	1.60437881	5.19302E-02
277.164	1.60443104	5.17455E-02
277.949	1.60448065	5.15630E-02
278.738	1.60452801	5.13827E-02
279.532	1.60457348	5.12047E-02
280.330	1.60461741	5.10291E-02
281.133	1.60466012	5.08559E-02
281.940	1.60470190	5.06853E-02
282.752	1.60474300	5.05175E-02
283.569	1.60478363	5.03524E-02
284.390	1.60482395	5.01903E-02
285.216	1.60486409	5.00313E-02
286.047	1.60490415	4.98753E-02
286.883	1.60494418	4.97224E-02
287.724	1.60498422	4.95727E-02
288.570	1.60502429	4.94261E-02
289.421	1.60506441	4.92826E-02
290.276	1.60510459	4.91420E-02
291.137	1.60514487	4.90041E-02
292.003	1.60518528	4.88690E-02
292.874	1.60522589	4.87363E-02
293.751	1.60526677	4.86059E-02
294.632	1.60530805	4.84777E-02
295.519	1.60534985	4.83514E-02
296.411	1.60539230	4.82270E-02
297.309	1.60543555	4.81043E-02
298.212	1.60547976	4.79831E-02
299.121	1.60552508	4.78636E-02
300.035	1.60557164	4.77455E-02
300.955	1.60561956	4.76288E-02
301.880	1.60566892	4.75136E-02
302.811	1.60571979	4.73999E-02
303.748	1.60577219	4.72877E-02
304.691	1.60582615	4.71769E-02
305.640	1.60588164	4.70675E-02
306.594	1.60593862	4.69596E-02
307.555	1.60599703	4.68531E-02
308.521	1.60605683	4.67479E-02
309.494	1.60611795	4.66440E-02
310.473	1.60618035	4.65412E-02
311.458	1.60624399	4.64393E-02
312.449	1.60630884	4.63384E-02
313.447	1.60637492	4.62383E-02
314.451	1.60644223	4.61387E-02
315.461	1.60651081	4.60398E-02
316.478	1.60658070	4.59412E-02
317.502	1.60665195	4.58431E-02
318.532	1.60672460	4.57453E-02
319.569	1.60679871	4.56477E-02
320.612	1.60687429	4.55505E-02
321.663	1.60695136	4.54536E-02
322.720	1.60702990	4.53570E-02
323.785	1.60710987	4.52608E-02
324.856	1.60719122	4.51649E-02
325.935	1.60727387	4.50693E-02
327.020	1.60735772	4.49741E-02
328.113	1.60744269	4.48792E-02
329.214	1.60752867	4.47844E-02
330.321	1.60761557	4.46899E-02
331.436	1.60770333	4.45953E-02
332.559	1.60779188	4.45007E-02
333.690	1.60788120	4.44058E-02
334.828	1.60797130	4.43107E-02
335.974	1.60806220	4.42150E-02
337.127	1.60815395	4.41189E-02
338.289	1.60824663	4.40221E-02
339.459	1.60834033	4.39247E-02
340.637	1.60843512	4.38266E-02
341.823	1.60853111	4.37279E-02
343.017	1.60862835	4.36286E-02
344.220	1.60872689	4.35288E-02
345.431	1.60882676	4.34287E-02
346.651	1.60892792	4.33283E-02
347.879	1.60903033	4.32277E-02
349.116	1.60913392	4.31271E-02
350.362	1.60923856	4.30266E-02
351.617	1.60934413	4.29262E-02
352.881	1.60945049	4.28259E-02
354.154	1.60955749	4.27257E-02
355.436	1.60966500	4.26257E-02
356.728	1.60977289	4.25257E-02
358.029	1.60988107	4.24257E-02
359.339	1.60998948	4.23257E-02
360.659	1.61009807	4.22254E-02
361.989	1.61020683	4.21248E-02
363.329	1.61031580	4.20240E-02
364.679	1.61042499	4.19227E-02
366.038	1.61053446	4.18211E-02
367.408	1.61064424	4.17191E-02
368.788	1.61075438	4.16168E-02
370.179	1.61086490	4.15142E-02
371.580	1.61097580	4.14114E-02
372.992	1.61108704	4.13085E-02
374.415	1.61119857	4.12055E-02
375.848	1.61131031	4.11026E-02
377.292	1.61142216	4.09998E-02
378.748	1.61153399	4.08970E-02
380.215	1.61164571	4.07944E-02
381.693	1.61175721	4.06917E-02
383.183	1.61186839	4.05890E-02
384.684	1.61197921	4.04860E-02
386.198	1.61208966	4.03828E-02
387.723	1.61219975	4.02791E-02
389.260	1.61230957	4.01749E-02
390.810	1.61241922	4.00700E-02
392.372	1.61252885	3.99644E-02
393.947	1.61263863	3.98580E-02
395.534	1.61274874	3.97509E-02
397.134	1.61285936	3.96432E-02
398.747	1.61297065	3.95350E-02
400.373	1.61308273	3.94265E-02
402.013	1.61319567	3.93178E-02
403.666	1.61330952	3.92093E-02
405.332	1.61342422	3.91010E-02
407.013	1.61353970	3.89933E-02
408.707	1.61365580	3.88863E-02
410.416	1.61377235	3.87801E-02
412.139	1.61388912	3.86749E-02
413.876	1.61400591	3.85706E-02
415.629	1.61412248	3.84672E-02
417.396	1.61423867	3.83646E-02
419.178	1.61435431	3.82626E-02
420.975	1.61446934	3.81609E-02
422.788	1.61458371	3.80595E-02
424.617	1.61469748	3.79581E-02
426.462	1.61481075	3.78565E-02
428.322	1.61492368	3.77545E-02
430.199	1.61503648	3.76520E-02
432.093	1.61514937	3.75490E-02
434.003	1.61526259	3.74456E-02
435.930	1.61537635	3.73418E-02
437.875	1.61549083	3.72378E-02
439.836	1.61560615	3.71338E-02
441.816	1.61572238	3.70300E-02
443.813	1.61583949	3.69267E-02
445.829	1.61595742	3.68241E-02
447.863	1.61607600	3.67224E-02
449.915	1.61619503	3.66219E-02
451.987	1.61631426	3.65225E-02
454.077	1.61643340	3.64243E-02
456.187	1.61655219	3.63272E-02
458.317	1.61667037	3.62311E-02
460.467	1.61678772	3.61359E-02
462.637	1.61690410	3.60412E-02
464.827	1.61701941	3.59467E-02
467.038	1.61713366	3.58522E-02
469.271	1.61724692	3.57573E-02
471.525	1.61735933	3.56618E-02
473.801	1.61747112	3.55655E-02
476.098	1.61758256	3.54681E-02
478.419	1.61769393	3.53696E-02
480.761	1.61780556	3.52701E-02
483.127	1.61791773	3.51695E-02
485.517	1.61803072	3.50680E-02
487.930	1.61814472	3.49658E-02
490.367	1.61825989	3.48632E-02
492.829	1.61837631	3.47605E-02
495.315	1.61849397	3.46579E-02
497.827	1.61861281	3.45557E-02
500.364	1.61873270	3.44542E-02
502.928	1.61885344	3.43534E-02
505.517	1.61897484	3.42536E-02
508.134	1.61909664	3.41548E-02
510.778	1.61921863	3.40570E-02
513.449	1.61934059	3.39602E-02
516.149	1.61946235	3.38642E-02
518.877	1.61958377	3.37688E-02
521.634	1.61970479	3.36741E-02
524.420	1.61982536	3.35796E-02
527.237	1.61994551	3.34854E-02
530.084	1.62006532	3.33912E-02
532.961	1.62018490	3.32969E-02
535.871	1.62030438	3.32025E-02
538.812	1.62042393	3.31078E-02
541.785	1.62054369	3.30130E-02
544.792	1.62066385	3.29181E-02
547.832	1.62078453	3.28231E-02
550.906	1.62090588	3.27282E-02
554.015	1.62102799	3.26336E-02
557.159	1.62115095	3.25393E-02
560.340	1.62127481	3.24456E-02
563.556	1.62139957	3.23527E-02
566.810	1.62152522	3.22608E-02
570.102	1.62165172	3.21701E-02
573.432	1.62177896	3.20808E-02
576.801	1.62190683	3.19931E-02
580.210	1.62203516	3.19072E-02
583.659	1.62216374	3.18232E-02
587.150	1.62229235	3.17413E-02
590.683	1.62242070	3.16615E-02
594.258	1.62254849	3.15840E-02
597.877	1.62267540	3.15085E-02
601.541	1.62280110	3.14351E-02
605.250	1.62292527	3.13636E-02
609.004	1.62304762	3.12937E-02
612.806	1.62316790	3.12250E-02
616.655	1.62328593	3.11572E-02
620.553	1.62340162	3.10897E-02
624.501	1.62351499	3.10221E-02
628.499	1.62362618	3.09538E-02
632.548	1.62373544	3.08843E-02
636.650	1.62384316	3.08131E-02
640.806	1.62394985	3.07399E-02
645.016	1.62405611	3.06642E-02
649.282	1.62416260	3.05859E-02
653.605	1.62427005	3.05051E-02
657.986	1.62437917	3.04217E-02
662.426	1.62449064	3.03361E-02
666.926	1.62460507	3.02486E-02
671.488	1.62472297	3.01598E-02
676.112	1.62484474	3.00701E-02
680.801	1.62497062	2.99803E-02
685.555	1.62510071	2.98909E-02
690.376	1.62523501	2.98024E-02
695.265	1.62537338	2.97155E-02
700.225	1.62551562	2.96304E-02
705.255	1.62566146	2.95475E-02
710.358	1.62581066	2.94669E-02
715.536	1.62596301	2.93887E-02
720.789	1.62611835	2.93128E-02
726.120	1.62627666	2.92391E-02
731.531	1.62643801	2.91674E-02
737.023	1.62660258	2.90978E-02
742.598	1.62677070	2.90301E-02
748.258	1.62694274	2.89644E-02
754.005	1.62711913	2.89010E-02
759.841	1.62730028	2.88401E-02
765.768	1.62748655	2.87824E-02
771.788	1.62767816	2.87284E-02
777.904	1.62787520	2.86790E-02
784.117	1.62807752	2.86348E-02
790.431	1.62828478	2.85966E-02
796.846	1.62849640	2.85651E-02
803.367	1.62871162	2.85406E-02
809.996	1.62892952	2.85236E-02
816.734	1.62914914	2.85138E-02
823.586	1.62936953	2.85108E-02
830.554	1.62958987	2.85139E-02
837.641	1.62980960	2.85219E-02
844.849	1.63002847	2.85337E-02
852.183	1.63024669	2.85476E-02
859.645	1.63046494	2.85623E-02
867.239	1.63068443	2.85761E-02
874.969	1.63090687	2.85881E-02
882.837	1.63113440	2.85973E-02
890.848	1.63136948	2.86037E-02
899.006	1.63161480	2.86075E-02
907.315	1.63187302	2.86099E-02
915.779	1.63214664	2.86127E-02
924.402	1.63243780	2.86183E-02
933.189	1.63274806	2.86297E-02
942.145	1.63307831	2.86502E-02
951.274	1.63342863	2.86833E-02
960.582	1.63379826	2.87326E-02
970.074	1.63418564	2.88012E-02
979.755	1.63458848	2.88918E-02
989.632	1.63500397	2.90064E-02
