Material: cargille / index-matching liquids / acrylic_double_matching_liquid
Optical constants. Acrylic Double Matching Liquid Code 4213295 Data Sheet 29-MAR-17 (obtained from https://www.cargille.com)
Comments: 25 Â°C
Conditions: {"temperature": 298}
Properties: {"density": [{"temperature": 298, "value": 1184}], "thermal_expansion": [{"temperature": 298, "value": 0.00066}]}
Dispersion formula 5, range 0.31 1.55 um, coefficients 1.473749 6.5503120E-3 -2 -1.2694420E-5 -4
wavelength (um)	k
0.3200	5.863E-06
0.3650	4.045E-07
0.4047	9.809E-08
0.4800	3.839E-08
0.4861	3.888E-08
0.5461	0.000E+00
0.5893	0.000E+00
0.6328	0.000E+00
0.6439	0.000E+00
0.6563	0.000E+00
0.6943	0.000E+00
0.8400	6.718E-08
1.0648	1.712E-07
1.3000	6.401E-07
1.5500	1.437E-06
