Material: cargille / index-matching liquids / BK7_matching_liquid
Optical constants. BK-7 Matching Liquid Data Sheet 27-March-2023 (obtained from https://www.cargille.com)
Comments: 25 Â°C
Conditions: {"temperature": 298}
Properties: {"density": [{"temperature": 298, "value": 1322}], "thermal_expansion": [{"temperature": 298, "value": 0.0007}], "freezing_point": [{"value": 264}]}
Dispersion formula 5, range 0.35 1.55 um, coefficients 1.502639 4.7089420E-5 -2 6.3670450E-5 -4
wavelength (um)	k
0.3500	1.243E-05
0.3650	1.899E-06
0.4047	5.234E-07
0.4800	1.163E-07
0.4861	7.815E-08
0.5461	0.000E+00
0.5893	0.000E+00
0.6328	0.000E+00
0.6439	0.000E+00
0.6563	0.000E+00
0.6943	0.000E+00
0.8400	0.000E+00
1.0648	1.712E-07
1.3000	5.306E-07
1.5500	1.258E-06
