Material: cargille / index-matching liquids / fused_silica_matching_liquid-50350
Optical constants. Fused Silica Matching Liquid Code 50350 Data Sheet 30-NOV-17 (obtained from https://www.cargille.com)
Comments: 25 Â°C.
Conditions: {"temperature": 298}
Properties: {"density": [{"temperature": 298, "value": 831}], "thermal_expansion": [{"temperature": 298, "value": 0.0008}]}
Dispersion formula 5, range 0.225 1.55 um, coefficients 1.446902 3.98963E-3 -2 3.757747E-5 -4
wavelength (um)	k
0.2250	1.314E-05
0.2480	1.368E-06
0.2700	2.516E-06
0.3080	4.203E-07
0.3370	4.045E-08
0.3650	2.108E-08
0.4861	1.984E-08
0.5461	2.229E-08
0.5893	2.405E-08
0.6328	2.583E-08
0.6563	5.249E-09
0.8400	2.729E-08
1.0648	4.763E-07
1.3000	1.281E-06
1.5500	2.615E-06
