Material: specs / ohara / BAH30
Optical constants. OHARA Zemax catalog 2017-11-30 (obtained from http://www.ohara-inc.co.jp)See also OHARA glass data sheets
Conditions: {"temperature": 298}
Properties: {"thermal_dispersion": [{"type": "formula A", "coefficients": "2.492e-06 0.0 0.0 0.0 0.0 0.0"}], "nd": 1.650158, "Vd": 39.390461, "glass_code": 650394, "glass_status": "preferred", "density": [{"value": 3910}], "thermal_expansion": [{"temperature_range": "243 343", "value": 9.2e-06}, {"temperature_range": "293 573", "value": 1.05e-05}], "dPgF": 0.0015, "resistance": {"acid": 51.2, "phosphate": 2.0}}
Dispersion formula 3, range 0.3 2.4 um, coefficients 2.6543867 -0.0084478289 2 0.022275774 -2 0.00090008133 -4 -3.5291806e-05 -6 4.7103195e-06 -8
wavelength (um)	k
0.330	7.8670E-06
0.340	3.0829E-06
0.350	1.4228E-06
0.360	8.2415E-07
0.370	5.1336E-07
0.380	3.5239E-07
0.390	2.4867E-07
0.400	1.6998E-07
0.420	9.8359E-08
0.440	6.7167E-08
0.460	4.4192E-08
0.480	3.0681E-08
0.500	1.9944E-08
0.550	1.3150E-08
0.600	1.9137E-08
0.650	2.0732E-08
0.700	2.2326E-08
0.800	2.5516E-08
0.900	3.5900E-08
