Material: specs / ohara / BAM12
Optical constants. OHARA Zemax catalog 2017-11-30 (obtained from http://www.ohara-inc.co.jp)See also OHARA glass data sheets
Conditions: {"temperature": 298}
Properties: {"thermal_dispersion": [{"type": "formula A", "coefficients": "3.9903e-06 0.0 0.0 0.0 0.0 0.0"}], "nd": 1.6393, "Vd": 44.878032, "glass_code": 639449, "glass_status": "preferred", "density": [{"value": 3800}], "thermal_expansion": [{"temperature_range": "243 343", "value": 7.6e-06}, {"temperature_range": "293 573", "value": 8.7e-06}], "dPgF": -0.0001}
Dispersion formula 3, range 0.365 0.9 um, coefficients 2.628582 -0.009085873 2 0.0195519 -2 0.0006698928 -4 -2.510153e-05 -6 3.047777e-06 -8
wavelength (um)	k
0.380	2.6532E-07
0.390	1.7228E-07
0.400	1.1011E-07
0.420	6.0709E-08
0.440	4.2271E-08
0.460	3.3094E-08
0.480	2.2987E-08
0.500	1.5947E-08
0.550	1.3150E-08
0.600	1.4345E-08
0.650	2.0732E-08
0.700	1.6736E-08
0.800	1.9127E-08
0.900	2.1518E-08
