Material: specs / ohara / BAM21
Optical constants. OHARA Zemax catalog 2017-11-30 (obtained from http://www.ohara-inc.co.jp)See also OHARA glass data sheets
Conditions: {"temperature": 298}
Properties: {"thermal_dispersion": [{"type": "formula A", "coefficients": "4.781e-06 0.0 0.0 0.0 0.0 0.0"}], "nd": 1.626059, "Vd": 39.215631, "glass_code": 626392, "glass_status": "preferred", "density": [{"value": 3630}], "thermal_expansion": [{"temperature_range": "243 343", "value": 8.2e-06}, {"temperature_range": "293 573", "value": 9.2e-06}], "dPgF": 0.0001, "resistance": {"acid": 2.2, "phosphate": 1.2}}
Dispersion formula 3, range 0.3 2.4 um, coefficients 2.579457 -0.0094225577 2 0.021195926 -2 0.0008094349 -4 -2.4922189e-05 -6 3.9861235e-06 -8
wavelength (um)	k
0.330	4.5032E-06
0.340	1.7693E-06
0.350	8.7654E-07
0.360	4.9949E-07
0.370	3.0695E-07
0.380	2.1295E-07
0.390	1.3965E-07
0.400	9.3675E-08
0.420	5.3908E-08
0.440	4.5817E-08
0.460	3.3094E-08
0.480	2.2987E-08
0.500	1.9944E-08
0.550	1.3150E-08
0.600	1.4345E-08
0.650	2.0732E-08
0.700	1.6736E-08
0.800	1.2745E-08
0.900	1.4338E-08
