Material: specs / ohara / BAM8
Optical constants. OHARA Zemax catalog 2017-11-30 (obtained from http://www.ohara-inc.co.jp)See also OHARA glass data sheets
Conditions: {"temperature": 298}
Properties: {"thermal_dispersion": [{"type": "formula A", "coefficients": "7.771e-06 0.0 0.0 0.0 0.0 0.0"}], "nd": 1.62374, "Vd": 47.09722, "glass_code": 624471, "glass_status": "preferred", "density": [{"value": 3620}], "thermal_expansion": [{"temperature_range": "243 343", "value": 6.3e-06}, {"temperature_range": "293 573", "value": 7.4e-06}], "dPgF": -0.0019, "resistance": {"acid": 52.2, "phosphate": 2.2}}
Dispersion formula 3, range 0.3 2.4 um, coefficients 2.583052 -0.0098044767 2 0.017999796 -2 0.00062560828 -4 -3.0382771e-05 -6 3.0639765e-06 -8
wavelength (um)	k
0.330	5.7964E-06
0.340	2.4791E-06
0.350	1.1998E-06
0.360	6.3926E-07
0.370	3.7639E-07
0.380	2.1620E-07
0.390	1.4290E-07
0.400	8.7125E-08
0.420	4.7122E-08
0.440	3.5190E-08
0.460	2.5714E-08
0.480	1.9146E-08
0.500	1.5947E-08
0.550	1.3150E-08
0.600	1.4345E-08
0.650	2.0732E-08
0.700	1.6736E-08
