Material: specs / ohara / BSM25
Optical constants. OHARA Zemax catalog 2017-11-30 (obtained from http://www.ohara-inc.co.jp)See also OHARA glass data sheets
Conditions: {"temperature": 298}
Properties: {"thermal_dispersion": [{"type": "formula A", "coefficients": "5.1799e-06 0.0 0.0 0.0 0.0 0.0"}], "nd": 1.658441, "Vd": 50.861723, "glass_code": 658509, "glass_status": "preferred", "density": [{"value": 3490}], "thermal_expansion": [{"temperature_range": "243 343", "value": 6.6e-06}, {"temperature_range": "293 573", "value": "8e-06"}], "dPgF": -0.0038}
Dispersion formula 3, range 0.365 0.9 um, coefficients 2.694748 -0.009564087 2 0.01971919 -2 0.0001351695 -4 3.250553e-05 -6 -8.799463e-07 -8
wavelength (um)	k
0.380	2.0971E-07
0.390	1.2346E-07
0.400	7.7326E-08
0.420	5.3908E-08
0.440	5.2919E-08
0.460	4.4192E-08
0.480	3.0681E-08
0.500	2.3945E-08
0.550	1.3150E-08
0.600	2.3933E-08
0.650	3.1129E-08
0.700	2.2326E-08
