Material: specs / ohara / L-LAM69
Optical constants. OHARA Zemax catalog 2017-11-30 (obtained from http://www.ohara-inc.co.jp)See also OHARA glass data sheets
Comments: Low Softening Temperature
Conditions: {"temperature": 298}
Properties: {"thermal_dispersion": [{"type": "formula A", "coefficients": "1.81e-07 7.4e-09 -3.48e-11 7.12e-07 8.78e-10 0.249"}], "nd": 1.73077, "Vd": 40.508156, "glass_code": 731405, "density": [{"value": 3240}], "thermal_expansion": [{"temperature_range": "243 343", "value": 8.6e-06}, {"temperature_range": "293 573", "value": 1.05e-05}], "dPgF": -0.0031, "resistance": {"climatic": 2.0, "acid": 52.2, "phosphate": 3.1}}
Dispersion formula 2, range 0.34 2.325 um, coefficients 0 1.7403896 0.010339887 0.176996917 0.0484822765 1.76775413 136.671996
wavelength (um)	k
0.340	1.0585E-05
0.350	4.2172E-06
0.360	1.9857E-06
0.370	1.0502E-06
0.380	6.3721E-07
0.390	4.3220E-07
0.400	2.9321E-07
0.420	1.7144E-07
0.440	1.2838E-07
0.460	9.6434E-08
0.480	6.9381E-08
0.500	4.4010E-08
0.550	1.7542E-08
0.600	2.8734E-08
0.650	2.5928E-08
0.700	2.2326E-08
0.800	1.2745E-08
0.900	1.4338E-08
