Material: specs / ohara / PBH6W
Optical constants. OHARA Zemax catalog 2017-11-30 (obtained from http://www.ohara-inc.co.jp)See also OHARA glass data sheets
Comments: Improved Transmittance
Conditions: {"temperature": 298}
Properties: {"thermal_dispersion": [{"type": "formula A", "coefficients": "1.501e-05 0.0 0.0 0.0 0.0 0.0"}], "nd": 1.805177, "Vd": 25.435012, "glass_code": 805254, "glass_status": "preferred", "density": [{"value": 5190}], "thermal_expansion": [{"temperature_range": "243 343", "value": 8.1e-06}, {"temperature_range": "293 573", "value": "9e-06"}], "dPgF": 0.0097, "resistance": {"acid": 51.2, "phosphate": 3.2}}
Dispersion formula 3, range 0.3 2.4 um, coefficients 3.120642 -0.011286328 2 0.040543249 -2 0.0033876996 -4 -0.00024180036 -6 2.7440285e-05 -8
wavelength (um)	k
0.350	1.2826E-05
0.360	5.4348E-06
0.370	2.3511E-06
0.380	1.1662E-06
0.390	6.5398E-07
0.400	3.7094E-07
0.420	1.4690E-07
0.440	6.7167E-08
0.460	3.6790E-08
0.480	2.2987E-08
0.500	1.5947E-08
0.550	8.7623E-09
0.600	9.5589E-09
0.650	1.0355E-08
0.700	1.1152E-08
0.800	6.3694E-09
0.900	7.1656E-09
