Material: specs / ohara / PBH72
Optical constants. OHARA Zemax catalog 2017-11-30 (obtained from http://www.ohara-inc.co.jp)See also OHARA glass data sheets
Conditions: {"temperature": 298}
Properties: {"thermal_dispersion": [{"type": "formula A", "coefficients": "2.001e-05 0.0 0.0 0.0 0.0 0.0"}], "nd": 1.915356, "Vd": 21.171926, "glass_code": 915212, "glass_status": "preferred", "density": [{"value": 5970}], "thermal_expansion": [{"temperature_range": "243 343", "value": 8.8e-06}, {"temperature_range": "293 573", "value": 9.6e-06}], "dPgF": 0.022, "resistance": {"acid": 53.4, "phosphate": 4.2}}
Dispersion formula 3, range 0.3 2.4 um, coefficients 3.4684938 -0.010731638 2 0.058252246 -2 0.0046536748 -4 -0.0003034305 -6 4.8216298e-05 -8
wavelength (um)	k
0.390	9.2973E-06
0.400	5.8333E-06
0.420	2.7439E-06
0.440	1.2992E-06
0.460	6.3823E-07
0.480	2.8954E-07
0.500	1.4588E-07
0.550	3.0745E-08
0.600	1.4345E-08
0.650	1.5541E-08
0.700	1.1152E-08
0.800	6.3694E-09
0.900	7.1656E-09
