Material: specs / ohara / S-BAH54
Optical constants. OHARA Zemax catalog 2017-11-30 (obtained from http://www.ohara-inc.co.jp)See also OHARA glass data sheets
Conditions: {"temperature": 298}
Properties: {"thermal_dispersion": [{"type": "formula A", "coefficients": "8.228e-06 0.0 0.0 0.0 0.0 0.0"}], "nd": 1.695, "Vd": 42.167111, "glass_code": 695422, "glass_status": "preferred", "density": [{"value": 3300}], "thermal_expansion": [{"temperature_range": "243 343", "value": 6.6e-06}, {"temperature_range": "293 573", "value": 8.1e-06}], "dPgF": -0.0039, "resistance": {"acid": 1.0, "phosphate": 1.0}}
Dispersion formula 3, range 0.3 2.4 um, coefficients 2.802774 -0.011441428 2 0.023830231 -2 0.00057322688 -4 1.1516047e-05 -6 1.2065896e-06 -8
wavelength (um)	k
0.330	6.3234E-06
0.340	2.9189E-06
0.350	1.4696E-06
0.360	7.4875E-07
0.370	4.1004E-07
0.380	2.3902E-07
0.390	1.4940E-07
0.400	1.0352E-07
0.420	7.0935E-08
0.440	6.0036E-08
0.460	4.7899E-08
0.480	3.8389E-08
0.500	2.7950E-08
0.550	1.3150E-08
0.600	1.4345E-08
0.650	1.5541E-08
0.700	1.1152E-08
