Material: specs / ohara / S-BSM4
Optical constants. OHARA Zemax catalog 2017-11-30 (obtained from http://www.ohara-inc.co.jp)See also OHARA glass data sheets
Comments: Recommended
Conditions: {"temperature": 298}
Properties: {"thermal_dispersion": [{"type": "formula A", "coefficients": "7.56e-07 1.32e-08 -4.04e-11 3.16e-07 5.36e-10 0.263"}], "nd": 1.612716, "Vd": 58.716945, "glass_code": 613587, "density": [{"value": 3570}], "thermal_expansion": [{"temperature_range": "243 343", "value": 6.7e-06}, {"temperature_range": "293 573", "value": 7.6e-06}], "dPgF": -0.0016, "resistance": {"climatic": 1.0, "acid": 51.2, "phosphate": 2.2}}
Dispersion formula 2, range 0.31 2.4 um, coefficients 0 0.96244308 0.00468062141 0.595939234 0.0178772082 1.10558352 115.896432
wavelength (um)	k
0.310	7.9406E-06
0.320	3.6341E-06
0.330	1.7172E-06
0.340	8.5149E-07
0.350	4.5265E-07
0.360	2.2644E-07
0.370	1.2019E-07
0.380	7.0363E-08
0.390	4.6905E-08
0.400	2.8778E-08
0.420	2.0114E-08
0.440	1.7551E-08
0.460	1.4672E-08
0.480	1.1476E-08
0.500	7.9657E-09
0.550	8.7623E-09
0.600	9.5589E-09
0.650	1.0355E-08
0.700	1.1152E-08
0.800	1.2745E-08
0.900	2.1518E-08
1.000	2.3909E-08
1.200	2.8691E-08
1.400	1.1197E-07
1.600	7.6624E-08
1.800	2.1649E-07
2.000	4.6837E-07
2.200	1.6319E-06
2.400	3.7901E-06
