Material: specs / ohara / S-NPH1
Optical constants. OHARA Zemax catalog 2017-11-30 (obtained from http://www.ohara-inc.co.jp)See also OHARA glass data sheets
Comments: Recommended
Conditions: {"temperature": 298}
Properties: {"thermal_dispersion": [{"type": "formula A", "coefficients": "-6.7e-06 1.01e-08 -3.04e-11 8.91e-07 1.32e-09 0.324"}], "nd": 1.808095, "Vd": 22.760817, "glass_code": 808228, "density": [{"value": 3290}], "thermal_expansion": [{"temperature_range": "243 343", "value": 8.3e-06}, {"temperature_range": "293 573", "value": 1.04e-05}], "dPgF": 0.0261, "resistance": {"climatic": 1.0, "acid": 1.0, "phosphate": 1.0}}
Dispersion formula 2, range 0.38 2.4 um, coefficients 0 1.75156623 0.0135004681 0.364006304 0.0668245147 2.47874141 170.756006
wavelength (um)	k
0.380	5.9454E-06
0.390	1.9704E-06
0.400	8.3195E-07
0.420	2.8960E-07
0.440	1.7224E-07
0.460	1.2284E-07
0.480	9.6707E-08
0.500	7.2272E-08
0.550	3.5155E-08
0.600	2.8734E-08
0.650	2.5928E-08
0.700	2.2326E-08
0.800	1.9127E-08
0.900	2.1518E-08
1.000	3.1895E-08
1.200	2.8691E-08
1.400	6.7046E-08
1.600	1.0227E-07
1.800	2.3104E-07
2.000	4.3563E-07
2.200	1.1954E-06
2.400	2.4414E-06
