Material: specs / ohara / S-TIM35
Optical constants. OHARA Zemax catalog 2017-11-30 (obtained from http://www.ohara-inc.co.jp)See also OHARA glass data sheets
Comments: Recommended - Lightweight
Conditions: {"temperature": 298}
Properties: {"thermal_dispersion": [{"type": "formula A", "coefficients": "4.7e-07 1.25e-08 -3.4e-11 8.29e-07 1.09e-09 0.289"}], "nd": 1.698947, "Vd": 30.127865, "glass_code": 699301, "density": [{"value": 2960}], "thermal_expansion": [{"temperature_range": "243 343", "value": 7.5e-06}, {"temperature_range": "293 573", "value": 8.9e-06}], "dPgF": 0.0103, "resistance": {"climatic": 1.0, "acid": 1.0, "phosphate": 1.0}}
Dispersion formula 2, range 0.37 2.4 um, coefficients 0 1.55849775 0.0115367235 0.230767007 0.0586095947 1.84436099 162.981888
wavelength (um)	k
0.370	5.7890E-06
0.380	2.2195E-06
0.390	1.0195E-06
0.400	5.5498E-07
0.420	2.1036E-07
0.440	1.2838E-07
0.460	9.6434E-08
0.480	7.3273E-08
0.500	5.6098E-08
0.550	2.6340E-08
0.600	2.8734E-08
0.650	3.6335E-08
0.700	2.7922E-08
0.800	1.2745E-08
0.900	7.1656E-09
1.000	7.9617E-09
1.200	9.5541E-09
1.400	5.5844E-08
1.600	6.3822E-08
1.800	1.7293E-07
2.000	3.2154E-07
2.200	1.0460E-06
2.400	1.3655E-06
