Material: organic / (C19H28O2)n - MDMO-PPV / Kamptner-o
Optical constants. A. Kamptner, M. C. Scharber, M. Schiek. Accurate determination of the uniaxial complex refractive index and the optical band gap of polymer thin films to correlate their absorption strength and onset of absorption. Chem. Phys. Chem. e202400233 (2024) (Numerical data kindly provided by Manuela Schiek)
Comments: Ordinary ray (o)
wavelength (um)	n	k
0.19146	1.56516	1.06150E-01
0.19465	1.55289	1.00300E-01
0.19784	1.53854	1.14590E-01
0.20104	1.53336	1.26390E-01
0.20423	1.53224	1.42910E-01
0.20742	1.54096	1.59280E-01
0.21062	1.56029	1.70930E-01
0.21381	1.58591	1.68930E-01
0.21701	1.60705	1.53440E-01
0.22020	1.61811	1.31140E-01
0.22340	1.61940	1.08670E-01
0.22659	1.61426	8.98400E-02
0.22979	1.60616	7.53300E-02
0.23298	1.59715	6.38700E-02
0.23618	1.58742	5.42900E-02
0.23938	1.57627	4.65700E-02
0.24257	1.56423	4.19500E-02
0.24577	1.55283	4.03300E-02
0.24897	1.54294	4.09100E-02
0.25216	1.53484	4.27100E-02
0.25536	1.52838	4.49900E-02
0.25856	1.52327	4.71800E-02
0.26176	1.51900	4.88800E-02
0.26496	1.51483	5.02400E-02
0.26815	1.51081	5.19100E-02
0.27135	1.50747	5.37200E-02
0.27455	1.50470	5.51800E-02
0.27775	1.50213	5.61200E-02
0.28095	1.49929	5.65600E-02
0.28415	1.49589	5.69900E-02
0.28735	1.49222	5.78600E-02
0.29055	1.48863	5.90500E-02
0.29375	1.48501	6.03400E-02
0.29695	1.48121	6.19500E-02
0.30015	1.47742	6.41200E-02
0.30335	1.47400	6.67600E-02
0.30655	1.47101	6.95900E-02
0.30975	1.46828	7.24800E-02
0.31295	1.46575	7.55500E-02
0.31615	1.46356	7.88400E-02
0.31935	1.46182	8.22400E-02
0.32255	1.46055	8.55800E-02
0.32576	1.45965	8.88000E-02
0.32896	1.45911	9.19500E-02
0.33216	1.45915	9.50300E-02
0.33536	1.46001	9.76500E-02
0.33856	1.46152	9.92500E-02
0.34176	1.46313	9.94200E-02
0.34497	1.46417	9.82700E-02
0.34817	1.46423	9.60400E-02
0.35137	1.46295	9.30400E-02
0.35457	1.46004	8.97900E-02
0.35777	1.45551	8.68800E-02
0.36098	1.44968	8.48200E-02
0.36418	1.44299	8.37800E-02
0.36738	1.43571	8.37400E-02
0.37058	1.42802	8.46900E-02
0.37379	1.42010	8.65900E-02
0.37699	1.41205	8.93800E-02
0.38019	1.40395	9.30100E-02
0.38339	1.39585	9.74300E-02
0.38660	1.38779	1.02600E-01
0.38980	1.37980	1.08510E-01
0.39300	1.37189	1.15140E-01
0.39621	1.36405	1.22470E-01
0.39941	1.35628	1.30560E-01
0.40261	1.34862	1.39470E-01
0.40581	1.34113	1.49260E-01
0.40902	1.33392	1.59950E-01
0.41222	1.32706	1.71560E-01
0.41542	1.32067	1.84090E-01
0.41863	1.31481	1.97500E-01
0.42183	1.30958	2.11790E-01
0.42503	1.30506	2.26910E-01
0.42823	1.30131	2.42800E-01
0.43144	1.29836	2.59410E-01
0.43464	1.29623	2.76680E-01
0.43784	1.29482	2.94610E-01
0.44105	1.29413	3.13380E-01
0.44425	1.29429	3.33190E-01
0.44745	1.29560	3.54160E-01
0.45065	1.29838	3.76350E-01
0.45386	1.30314	3.99670E-01
0.45706	1.31026	4.23690E-01
0.46026	1.31988	4.47950E-01
0.46346	1.33199	4.72080E-01
0.46667	1.34655	4.95720E-01
0.46987	1.36343	5.18590E-01
0.47307	1.38252	5.40470E-01
0.47627	1.40369	5.61170E-01
0.47947	1.42681	5.80520E-01
0.48267	1.45180	5.98420E-01
0.48588	1.47859	6.14760E-01
0.48908	1.50727	6.29350E-01
0.49228	1.53783	6.41760E-01
0.49548	1.56996	6.51560E-01
0.49868	1.60326	6.58470E-01
0.50188	1.63727	6.62320E-01
0.50508	1.67151	6.63010E-01
0.50828	1.70539	6.60570E-01
0.51149	1.73830	6.55380E-01
0.51469	1.77003	6.47990E-01
0.51789	1.80059	6.38840E-01
0.52109	1.83009	6.28250E-01
0.52429	1.85872	6.16480E-01
0.52749	1.88678	6.03740E-01
0.53069	1.91482	5.90050E-01
0.53389	1.94338	5.74790E-01
0.53709	1.97236	5.57190E-01
0.54028	2.00139	5.36650E-01
0.54348	2.02996	5.12700E-01
0.54668	2.05740	4.84960E-01
0.54988	2.08290	4.53090E-01
0.55308	2.10525	4.16850E-01
0.55628	2.12265	3.76800E-01
0.55948	2.13414	3.34580E-01
0.56267	2.13955	2.91610E-01
0.56587	2.13897	2.49100E-01
0.56907	2.13266	2.08190E-01
0.57227	2.12106	1.69900E-01
0.57546	2.10481	1.35290E-01
0.57866	2.08489	1.05400E-01
0.58186	2.06302	8.08100E-02
0.58505	2.04065	6.10000E-02
0.58825	2.01857	4.53300E-02
0.59144	1.99734	3.32200E-02
0.59464	1.97734	2.41000E-02
0.59783	1.95884	1.74300E-02
0.60103	1.94199	1.26800E-02
0.60422	1.92685	9.32000E-03
0.60742	1.91330	6.84000E-03
0.61061	1.90104	4.88000E-03
0.61381	1.88981	3.33000E-03
0.61700	1.87946	2.16000E-03
0.62019	1.86993	1.31000E-03
0.62339	1.86112	7.19000E-04
0.62658	1.85300	3.42000E-04
0.62977	1.84549	1.28000E-04
0.63296	1.83856	3.00000E-05
0.63616	1.83215	2.00000E-06
0.63935	1.82621	0
0.64254	1.82067	0
0.64573	1.81547	0
0.64892	1.81058	0
0.65211	1.80597	0
0.65530	1.80160	0
0.65849	1.79746	0
0.66168	1.79353	0
0.66487	1.78978	0
0.66805	1.78621	0
0.67124	1.78281	0
0.67443	1.77955	0
0.67762	1.77644	0
0.68080	1.77346	0
0.68399	1.77059	0
0.68718	1.76784	0
0.69036	1.76520	0
0.69355	1.76266	0
0.69673	1.76021	0
0.69992	1.75786	0
0.70310	1.75558	0
0.70628	1.75339	0
0.70947	1.75127	0
0.71265	1.74922	0
0.71583	1.74724	0
0.71902	1.74532	0
0.72220	1.74347	0
0.72538	1.74167	0
0.72856	1.73993	0
0.73174	1.73824	0
0.73492	1.73660	0
0.73810	1.73501	0
0.74128	1.73346	0
0.74446	1.73196	0
0.74763	1.73050	0
0.75081	1.72908	0
0.75399	1.72770	0
0.75716	1.72636	0
0.76034	1.72505	0
0.76352	1.72378	0
0.76669	1.72253	0
0.76987	1.72133	0
0.77304	1.72015	0
0.77621	1.71900	0
0.77939	1.71787	0
0.78256	1.71678	0
0.78573	1.71571	0
0.78890	1.71466	0
0.79207	1.71364	0
0.79524	1.71265	0
0.79841	1.71167	0
0.80158	1.71072	0
0.80475	1.70979	0
0.80792	1.70888	0
0.81109	1.70799	0
0.81425	1.70712	0
0.81742	1.70627	0
0.82058	1.70543	0
0.82375	1.70462	0
0.82691	1.70382	0
0.83008	1.70303	0
0.83324	1.70226	0
0.83641	1.70151	0
0.83957	1.70077	0
0.84273	1.70005	0
0.84589	1.69934	0
0.84905	1.69865	0
0.85221	1.69796	0
0.85537	1.69729	0
0.85853	1.69664	0
0.86169	1.69599	0
0.86484	1.69536	0
0.86800	1.69474	0
0.87116	1.69413	0
0.87431	1.69353	0
0.87747	1.69294	0
0.88062	1.69237	0
0.88377	1.69180	0
0.88693	1.69124	0
0.89008	1.69069	0
0.89323	1.69015	0
0.89638	1.68962	0
0.89953	1.68911	0
0.90268	1.68859	0
0.90583	1.68809	0
0.90898	1.68760	0
0.91212	1.68711	0
0.91527	1.68663	0
0.91842	1.68616	0
0.92156	1.68569	0
0.92470	1.68524	0
0.92785	1.68479	0
0.93099	1.68435	0
0.93413	1.68391	0
0.93728	1.68348	0
0.94042	1.68306	0
0.94356	1.68265	0
0.94669	1.68224	0
0.94983	1.68184	0
0.95297	1.68144	0
0.95611	1.68105	0
0.95924	1.68066	0
0.96238	1.68028	0
0.96551	1.67991	0
0.96865	1.67954	0
0.97178	1.67918	0
0.97491	1.67882	0
0.97804	1.67847	0
0.98117	1.67812	0
0.98430	1.67778	0
0.98743	1.67744	0
0.99056	1.67710	0
0.99369	1.67677	0
0.99681	1.67645	0
0.99994	1.67613	0
1.01681	1.67447	0
1.02367	1.67383	0
1.03052	1.67321	0
1.03738	1.67260	0
1.04423	1.67202	0
1.05109	1.67144	0
1.05795	1.67088	0
1.06480	1.67034	0
1.07166	1.66981	0
1.07851	1.66929	0
1.08537	1.66879	0
1.09223	1.66830	0
1.09908	1.66782	0
1.10594	1.66736	0
1.11280	1.66690	0
1.11965	1.66646	0
1.12651	1.66602	0
1.13337	1.66560	0
1.14022	1.66518	0
1.14708	1.66478	0
1.15394	1.66439	0
1.16080	1.66400	0
1.16766	1.66362	0
1.17452	1.66325	0
1.18138	1.66289	0
1.18824	1.66254	0
1.19510	1.66220	0
1.20196	1.66186	0
1.20883	1.66153	0
1.21569	1.66120	0
1.22255	1.66089	0
1.22942	1.66057	0
1.23628	1.66027	0
1.24315	1.65997	0
1.25001	1.65968	0
1.25688	1.65940	0
1.26375	1.65911	0
1.27062	1.65884	0
1.27749	1.65857	0
1.28436	1.65831	0
1.29123	1.65805	0
1.29810	1.65779	0
1.30497	1.65754	0
1.31185	1.65730	0
1.31872	1.65706	0
1.32560	1.65682	0
1.33248	1.65659	0
1.33935	1.65637	0
1.34623	1.65614	0
1.35311	1.65592	0
1.36000	1.65571	0
1.36688	1.65550	0
1.37376	1.65529	0
1.38065	1.65509	0
1.38753	1.65489	0
1.39442	1.65469	0
1.40131	1.65450	0
1.40820	1.65431	0
1.41509	1.65412	0
1.42199	1.65393	0
1.42888	1.65376	0
1.43578	1.65358	0
1.44267	1.65340	0
1.44957	1.65323	0
1.45647	1.65306	0
1.46337	1.65290	0
1.47028	1.65273	0
1.47718	1.65257	0
1.48409	1.65241	0
1.49100	1.65226	0
1.49791	1.65210	0
1.50482	1.65195	0
1.51173	1.65180	0
1.51865	1.65166	0
1.52556	1.65151	0
1.53248	1.65137	0
1.53940	1.65123	0
1.54633	1.65109	0
1.55325	1.65096	0
1.56018	1.65082	0
1.56711	1.65069	0
1.57404	1.65056	0
1.58097	1.65043	0
1.58790	1.65030	0
1.59484	1.65018	0
1.60178	1.65006	0
1.60872	1.64994	0
1.61566	1.64982	0
1.62260	1.64970	0
1.62955	1.64959	0
1.63650	1.64947	0
1.64345	1.64936	0
1.65040	1.64925	0
1.65736	1.64914	0
1.66432	1.64903	0
1.67128	1.64892	0
1.67824	1.64882	0
1.68520	1.64872	0
