Material: main / HfSe2 / Zotev-e
Optical constants. P. G. Zotev, Y. Wang, D. Andres-Penares, T. Severs-Millard, S. Randerson, X. Hu, L. Sortino, C. Louca, M. Brotons-Gisbert, T. Huq, S. Vezzoli, R. Sapienza, T. F. Krauss, B. D. Gerardot, A. I. Tartakovskii. Van der Waals materials for applications in nanophotonics. Laser and Photonics Rev. 17, 2200957 (2023) (Numerical data kindly provided by Panaiot Zotev)
Comments: Multilayer crystals. Out-of-plane (extraordinary ray, e). Room temperature.
wavelength (um)	n	k
0.3600	4.15012	0
0.3632	4.14457	0
0.3664	4.13917	0
0.3696	4.13391	0
0.3728	4.12879	0
0.3760	4.12379	0
0.3792	4.11892	0
0.3824	4.11417	0
0.3856	4.10954	0
0.3888	4.10502	0
0.3920	4.10061	0
0.3952	4.09631	0
0.3984	4.09212	0
0.4016	4.08802	0
0.4048	4.08402	0
0.4080	4.08011	0
0.4112	4.07630	0
0.4144	4.07257	0
0.4176	4.06893	0
0.4208	4.06537	0
0.4240	4.06189	0
0.4272	4.05849	0
0.4304	4.05516	0
0.4336	4.05191	0
0.4368	4.04873	0
0.4400	4.04562	0
0.4432	4.04257	0
0.4464	4.03959	0
0.4496	4.03668	0
0.4528	4.03382	0
0.4560	4.03103	0
0.4592	4.02829	0
0.4624	4.02561	0
0.4656	4.02299	0
0.4688	4.02041	0
0.4720	4.01790	0
0.4752	4.01543	0
0.4784	4.01301	0
0.4816	4.01064	0
0.4848	4.00831	0
0.4880	4.00604	0
0.4912	4.00380	0
0.4944	4.00161	0
0.4976	3.99946	0
0.5008	3.99735	0
0.5040	3.99529	0
0.5072	3.99326	0
0.5104	3.99127	0
0.5136	3.98931	0
0.5168	3.98739	0
0.5200	3.98551	0
0.5232	3.98367	0
0.5264	3.98185	0
0.5296	3.98007	0
0.5321	3.97870	0
0.5344	3.97746	0
0.5376	3.97575	0
0.5408	3.97408	0
0.5440	3.97244	0
0.5472	3.97082	0
0.5504	3.96924	0
0.5536	3.96768	0
0.5568	3.96615	0
0.5600	3.96464	0
0.5632	3.96316	0
0.5664	3.96171	0
0.5696	3.96027	0
0.5728	3.95887	0
0.5760	3.95748	0
0.5792	3.95612	0
0.5824	3.95479	0
0.5856	3.95347	0
0.5888	3.95217	0
0.5920	3.95090	0
0.5952	3.94965	0
0.5984	3.94841	0
0.6016	3.94720	0
0.6048	3.94600	0
0.6080	3.94483	0
0.6112	3.94367	0
0.6144	3.94253	0
0.6176	3.94141	0
0.6208	3.94031	0
0.6240	3.93922	0
0.6272	3.93815	0
0.6304	3.93709	0
0.6336	3.93605	0
0.6368	3.93503	0
0.6400	3.93402	0
0.6432	3.93303	0
0.6464	3.93205	0
0.6496	3.93109	0
0.6528	3.93014	0
0.6560	3.92920	0
0.6592	3.92828	0
0.6624	3.92737	0
0.6656	3.92648	0
0.6688	3.92559	0
0.6720	3.92472	0
0.6752	3.92387	0
0.6784	3.92302	0
0.6816	3.92219	0
0.6848	3.92136	0
0.6880	3.92055	0
0.6912	3.91975	0
0.6944	3.91896	0
0.6976	3.91819	0
0.7008	3.91742	0
0.7040	3.91666	0
0.7072	3.91592	0
0.7104	3.91518	0
0.7136	3.91445	0
0.7168	3.91374	0
0.7200	3.91303	0
0.7232	3.91233	0
0.7264	3.91164	0
0.7296	3.91096	0
0.7328	3.91029	0
0.7360	3.90963	0
0.7392	3.90898	0
0.7424	3.90833	0
0.7456	3.90770	0
0.7488	3.90707	0
0.7520	3.90645	0
0.7552	3.90583	0
0.7584	3.90523	0
0.7616	3.90463	0
0.7648	3.90404	0
0.7680	3.90346	0
0.7712	3.90288	0
0.7744	3.90232	0
0.7776	3.90176	0
0.7808	3.90120	0
0.7840	3.90065	0
0.7872	3.90011	0
0.7904	3.89958	0
0.7936	3.89905	0
0.7968	3.89853	0
0.8000	3.89801	0
0.8032	3.89751	0
0.8064	3.89700	0
0.8096	3.89651	0
0.8128	3.89601	0
0.8160	3.89553	0
0.8192	3.89505	0
0.8224	3.89457	0
0.8256	3.89411	0
0.8288	3.89364	0
0.8320	3.89318	0
0.8352	3.89273	0
0.8384	3.89228	0
0.8416	3.89184	0
0.8448	3.89141	0
0.8480	3.89097	0
0.8512	3.89054	0
0.8544	3.89012	0
0.8576	3.88970	0
0.8608	3.88929	0
0.8640	3.88888	0
0.8672	3.88848	0
0.8704	3.88808	0
0.8736	3.88768	0
0.8768	3.88729	0
0.8800	3.88690	0
0.8832	3.88652	0
0.8864	3.88614	0
0.8896	3.88577	0
0.8928	3.88540	0
0.8960	3.88503	0
0.8992	3.88467	0
0.9024	3.88431	0
0.9056	3.88396	0
0.9088	3.88360	0
0.9120	3.88326	0
0.9152	3.88291	0
0.9184	3.88257	0
0.9216	3.88224	0
0.9248	3.88190	0
0.9280	3.88157	0
0.9312	3.88125	0
0.9344	3.88092	0
0.9376	3.88060	0
0.9408	3.88029	0
0.9440	3.87997	0
0.9472	3.87966	0
0.9504	3.87936	0
0.9536	3.87905	0
0.9568	3.87875	0
0.9600	3.87845	0
0.9632	3.87816	0
0.9664	3.87787	0
0.9696	3.87758	0
0.9728	3.87729	0
0.9760	3.87701	0
0.9792	3.87673	0
0.9824	3.87645	0
0.9856	3.87618	0
0.9888	3.87590	0
0.9920	3.87563	0
0.9952	3.87537	0
0.9984	3.87510	0
