Material: main / HfSe2 / Zotev-o
Optical constants. P. G. Zotev, Y. Wang, D. Andres-Penares, T. Severs-Millard, S. Randerson, X. Hu, L. Sortino, C. Louca, M. Brotons-Gisbert, T. Huq, S. Vezzoli, R. Sapienza, T. F. Krauss, B. D. Gerardot, A. I. Tartakovskii. Van der Waals materials for applications in nanophotonics. Laser and Photonics Rev. 17, 2200957 (2023) (Numerical data kindly provided by Panaiot Zotev)
Comments: Multilayer crystals. In-plane (ordinary ray, o). Room temperature.
wavelength (um)	n	k
0.3600	2.499	1.472
0.3632	2.515	1.466
0.3664	2.529	1.460
0.3696	2.540	1.455
0.3728	2.550	1.450
0.3760	2.557	1.445
0.3792	2.562	1.442
0.3824	2.565	1.440
0.3856	2.566	1.440
0.3888	2.564	1.441
0.3920	2.562	1.445
0.3952	2.557	1.451
0.3984	2.551	1.460
0.4016	2.544	1.472
0.4048	2.536	1.487
0.4080	2.528	1.506
0.4112	2.518	1.530
0.4144	2.509	1.557
0.4176	2.500	1.589
0.4208	2.491	1.627
0.4240	2.484	1.671
0.4272	2.479	1.721
0.4304	2.477	1.778
0.4336	2.479	1.843
0.4368	2.488	1.916
0.4400	2.504	1.997
0.4432	2.531	2.088
0.4464	2.571	2.186
0.4496	2.629	2.293
0.4528	2.709	2.404
0.4560	2.816	2.515
0.4592	2.956	2.620
0.4624	3.132	2.707
0.4656	3.341	2.761
0.4688	3.575	2.765
0.4720	3.812	2.706
0.4752	4.025	2.585
0.4784	4.190	2.415
0.4816	4.293	2.225
0.4848	4.340	2.041
0.4880	4.345	1.878
0.4912	4.322	1.744
0.4944	4.285	1.640
0.4976	4.243	1.562
0.5008	4.203	1.505
0.5040	4.167	1.464
0.5072	4.137	1.436
0.5104	4.115	1.418
0.5136	4.101	1.407
0.5168	4.094	1.401
0.5200	4.095	1.397
0.5232	4.103	1.395
0.5264	4.117	1.393
0.5296	4.138	1.390
0.5321	4.158	1.387
0.5344	4.180	1.382
0.5376	4.214	1.372
0.5408	4.252	1.357
0.5440	4.293	1.338
0.5472	4.336	1.313
0.5504	4.380	1.281
0.5536	4.424	1.243
0.5568	4.467	1.199
0.5600	4.508	1.148
0.5632	4.544	1.091
0.5664	4.576	1.029
0.5696	4.602	0.963
0.5728	4.621	0.893
0.5760	4.633	0.821
0.5792	4.638	0.748
0.5824	4.635	0.676
0.5856	4.626	0.605
0.5888	4.610	0.536
0.5920	4.589	0.472
0.5952	4.563	0.411
0.5984	4.532	0.354
0.6016	4.499	0.303
0.6048	4.463	0.256
0.6080	4.425	0.214
0.6112	4.386	0.176
0.6144	4.346	0.144
0.6176	4.306	0.115
0.6208	4.267	0.091
0.6240	4.229	0.070
0.6272	4.191	0.052
0.6304	4.154	0.038
0.6336	4.119	0.026
0.6368	4.086	0.017
0.6400	4.054	0.010
0.6432	4.024	0.005
0.6464	3.995	0.002
0.6496	3.969	0
0.6528	3.945	0
0.6560	3.924	0
0.6592	3.904	9.31E-05
0.6624	3.885	4.32E-05
0.6656	3.867	1.27E-05
0.6688	3.851	3.64E-07
0.6720	3.835	0
0.6752	3.820	0
0.6784	3.806	0
0.6816	3.793	0
0.6848	3.780	0
0.6880	3.768	0
0.6912	3.756	0
0.6944	3.744	0
0.6976	3.733	0
0.7008	3.723	0
0.7040	3.713	0
0.7072	3.703	0
0.7104	3.694	0
0.7136	3.685	0
0.7168	3.676	0
0.7200	3.667	0
0.7232	3.659	0
0.7264	3.651	0
0.7296	3.643	0
0.7328	3.636	0
0.7360	3.629	0
0.7392	3.622	0
0.7424	3.615	0
0.7456	3.608	0
0.7488	3.601	0
0.7520	3.595	0
0.7552	3.589	0
0.7584	3.583	0
0.7616	3.577	0
0.7648	3.572	0
0.7680	3.566	0
0.7712	3.561	0
0.7744	3.555	0
0.7776	3.550	0
0.7808	3.545	0
0.7840	3.540	0
0.7872	3.535	0
0.7904	3.531	0
0.7936	3.526	0
0.7968	3.522	0
0.8000	3.517	0
0.8032	3.513	0
0.8064	3.509	0
0.8096	3.505	0
0.8128	3.501	0
0.8160	3.497	0
0.8192	3.493	0
0.8224	3.489	0
0.8256	3.485	0
0.8288	3.482	0
0.8320	3.478	0
0.8352	3.475	0
0.8384	3.471	0
0.8416	3.468	0
0.8448	3.465	0
0.8480	3.461	0
0.8512	3.458	0
0.8544	3.455	0
0.8576	3.452	0
0.8608	3.449	0
0.8640	3.446	0
0.8672	3.443	0
0.8704	3.440	0
0.8736	3.438	0
0.8768	3.435	0
0.8800	3.432	0
0.8832	3.430	0
0.8864	3.427	0
0.8896	3.424	0
0.8928	3.422	0
0.8960	3.419	0
0.8992	3.417	0
0.9024	3.415	0
0.9056	3.412	0
0.9088	3.410	0
0.9120	3.408	0
0.9152	3.405	0
0.9184	3.403	0
0.9216	3.401	0
0.9248	3.399	0
0.9280	3.397	0
0.9312	3.395	0
0.9344	3.393	0
0.9376	3.391	0
0.9408	3.389	0
0.9440	3.387	0
0.9472	3.385	0
0.9504	3.383	0
0.9536	3.381	0
0.9568	3.379	0
0.9600	3.377	0
0.9632	3.375	0
0.9664	3.374	0
0.9696	3.372	0
0.9728	3.370	0
0.9760	3.369	0
0.9792	3.367	0
0.9824	3.365	0
0.9856	3.364	0
0.9888	3.362	0
0.9920	3.360	0
0.9952	3.359	0
0.9984	3.357	0
