Material: perovskite / CsPbCl3 / Zhang
Optical constants. X. Zhang, Y. Chen, X. Liu, Z. Liu, H. Gu, S. Bo, G. Liao. Optimizing the design of the vapor-deposited CsPbCl3-based optoelectronic devices via simulations and experiments. Adv. Funct. Mater., 2310945 (2023) (Numerical data kindly provided by Xuning Zhang)
Comments: Vapor-deposited thin film. Film thickness: 198 nm; Room temperature
Conditions: {"film_thickness": "198e-9", "substrate": "glass"}
wavelength (um)	n	k
0.1930	1.709884	0.292923
0.1960	1.683081	0.329398
0.1990	1.664476	0.369481
0.2020	1.655337	0.412498
0.2050	1.657121	0.456983
0.2080	1.671072	0.500478
0.2110	1.697640	0.539523
0.2140	1.735810	0.570006
0.2170	1.782619	0.587989
0.2200	1.833232	0.590870
0.2230	1.881823	0.578440
0.2260	1.923081	0.553189
0.2290	1.953601	0.519543
0.2320	1.972441	0.482458
0.2350	1.980705	0.446144
0.2380	1.980639	0.413446
0.2410	1.974797	0.385856
0.2440	1.965524	0.363835
0.2470	1.954754	0.347188
0.2500	1.943988	0.335336
0.2530	1.934347	0.327497
0.2560	1.926630	0.322766
0.2590	1.921343	0.320174
0.2620	1.918705	0.318722
0.2650	1.918645	0.317443
0.2680	1.920810	0.315483
0.2710	1.924611	0.312193
0.2740	1.929315	0.307203
0.2770	1.934165	0.300445
0.2800	1.938506	0.292120
0.2830	1.941862	0.282612
0.2860	1.943969	0.272384
0.2890	1.944756	0.261894
0.2920	1.944298	0.251528
0.2950	1.942760	0.241575
0.2980	1.940345	0.232227
0.3010	1.937264	0.223592
0.3040	1.933710	0.215711
0.3070	1.929851	0.208579
0.3100	1.925821	0.202161
0.3130	1.921727	0.196406
0.3160	1.917649	0.191253
0.3190	1.913644	0.186639
0.3220	1.909753	0.182505
0.3250	1.906001	0.178793
0.3280	1.902401	0.175454
0.3310	1.898959	0.172441
0.3340	1.895672	0.169716
0.3370	1.892535	0.167247
0.3400	1.889535	0.165007
0.3430	1.886659	0.162976
0.3460	1.883890	0.161139
0.3490	1.881211	0.159487
0.3520	1.878605	0.158018
0.3550	1.876060	0.156723
0.3580	1.873533	0.155597
0.3610	1.870984	0.154661
0.3640	1.868375	0.153950
0.3670	1.865668	0.153508
0.3700	1.862819	0.153395
0.3730	1.859780	0.153695
0.3760	1.856494	0.154520
0.3790	1.852898	0.156028
0.3820	1.848913	0.158439
0.3850	1.844452	0.162080
0.3880	1.839414	0.167438
0.3910	1.833707	0.175284
0.3940	1.827308	0.186893
0.3970	1.820467	0.204498
0.4000	1.814431	0.232247
0.4030	1.814158	0.278113
0.4060	1.839263	0.355314
0.4090	1.958335	0.454228
0.4120	2.203709	0.382847
0.4150	2.226796	0.141445
0.4180	2.128818	0.044235
0.4210	2.059911	0.021475
0.4240	2.019658	0.017795
0.4270	1.994455	0.015754
0.4300	1.975828	0.013768
0.4330	1.960968	0.011886
0.4360	1.948533	0.010140
0.4390	1.937778	0.008551
0.4420	1.928252	0.007136
0.4450	1.919668	0.005911
0.4480	1.911837	0.004887
0.4510	1.904637	0.004077
0.4540	1.897993	0.003490
0.4570	1.891874	0.003134
0.4600	1.886336	0.002968
0.4630	1.881303	0.002822
0.4660	1.876658	0.002683
0.4690	1.872338	0.002549
0.4720	1.868299	0.002421
0.4750	1.864504	0.002298
0.4780	1.860928	0.002181
0.4810	1.857545	0.002068
0.4840	1.854338	0.001961
0.4870	1.851289	0.001858
0.4900	1.848384	0.001759
0.4930	1.845611	0.001665
0.4960	1.842959	0.001575
0.4990	1.840419	0.001488
0.5020	1.837982	0.001406
0.5050	1.835642	0.001327
0.5080	1.833391	0.001251
0.5110	1.831223	0.001179
0.5140	1.829134	0.001110
0.5170	1.827117	0.001044
0.5200	1.825170	0.000981
0.5230	1.823287	0.000920
0.5260	1.821465	0.000863
0.5290	1.819702	0.000808
0.5320	1.817993	0.000756
0.5350	1.816336	0.000706
0.5380	1.814728	0.000658
0.5410	1.813167	0.000613
0.5440	1.811651	0.000569
0.5470	1.810177	0.000528
0.5500	1.808744	0.000489
0.5530	1.807349	0.000452
0.5560	1.805992	0.000417
0.5590	1.804670	0.000383
0.5620	1.803382	0.000352
0.5650	1.802127	0.000322
0.5680	1.800903	0.000294
0.5710	1.799709	0.000267
0.5740	1.798544	0.000242
0.5770	1.797406	0.000218
0.5800	1.796296	0.000196
0.5830	1.795211	0.000175
0.5860	1.794151	0.000156
0.5890	1.793115	0.000138
0.5920	1.792103	0.000121
0.5950	1.791112	0.000105
0.5980	1.790144	0.000091
0.6010	1.789196	0.000078
0.6040	1.788268	0.000066
0.6070	1.787361	0.000055
0.6100	1.786472	0.000045
0.6130	1.785601	0.000036
0.6160	1.784749	0.000028
0.6190	1.783913	0.000022
0.6220	1.783095	0.000016
0.6250	1.782293	0.000011
0.6280	1.781507	0.000007
0.6310	1.780737	0.000004
0.6340	1.779981	0.000002
0.6370	1.779241	0.000001
0.6400	1.778515	0
0.6430	1.777804	0
0.6460	1.777106	0
0.6490	1.776422	0
0.6520	1.775751	0
0.6550	1.775092	0
0.6580	1.774445	0
0.6610	1.773809	0
0.6640	1.773185	0
0.6670	1.772572	0
0.6700	1.771970	0
0.6730	1.771377	0
0.6760	1.770795	0
0.6790	1.770223	0
0.6820	1.769660	0
0.6850	1.769107	0
0.6880	1.768563	0
0.6910	1.768027	0
0.6940	1.767501	0
0.6970	1.766982	0
0.7000	1.766472	0
0.7030	1.765969	0
0.7060	1.765475	0
0.7090	1.764988	0
0.7120	1.764508	0
0.7150	1.764036	0
0.7180	1.763571	0
0.7210	1.763113	0
0.7240	1.762661	0
0.7270	1.762216	0
0.7300	1.761778	0
0.7330	1.761346	0
0.7360	1.760920	0
0.7390	1.760500	0
0.7420	1.760085	0
0.7450	1.759677	0
0.7480	1.759274	0
0.7510	1.758877	0
0.7540	1.758485	0
0.7570	1.758099	0
0.7600	1.757718	0
0.7630	1.757341	0
0.7660	1.756970	0
0.7690	1.756603	0
0.7720	1.756242	0
0.7750	1.755885	0
0.7780	1.755532	0
0.7810	1.755184	0
0.7840	1.754841	0
0.7870	1.754501	0
0.7900	1.754166	0
0.7930	1.753835	0
0.7960	1.753508	0
0.7990	1.753185	0
0.8020	1.752866	0
0.8050	1.752551	0
0.8080	1.752240	0
0.8110	1.751932	0
0.8140	1.751628	0
0.8170	1.751327	0
0.8200	1.751030	0
0.8230	1.750736	0
0.8260	1.750445	0
0.8290	1.750158	0
0.8320	1.749874	0
0.8350	1.749594	0
0.8380	1.749316	0
0.8410	1.749041	0
0.8440	1.748770	0
0.8470	1.748501	0
0.8500	1.748235	0
0.8530	1.747972	0
0.8560	1.747712	0
0.8590	1.747455	0
0.8620	1.747200	0
0.8650	1.746948	0
0.8680	1.746698	0
0.8710	1.746451	0
0.8740	1.746207	0
0.8770	1.745965	0
0.8800	1.745726	0
0.8830	1.745489	0
0.8860	1.745254	0
0.8890	1.745021	0
0.8920	1.744791	0
0.8950	1.744563	0
0.8980	1.744337	0
0.9010	1.744114	0
0.9040	1.743892	0
0.9070	1.743673	0
0.9100	1.743456	0
0.9130	1.743240	0
0.9160	1.743027	0
0.9190	1.742816	0
0.9220	1.742606	0
0.9250	1.742399	0
0.9280	1.742193	0
0.9310	1.741989	0
0.9340	1.741787	0
0.9370	1.741587	0
0.9400	1.741388	0
0.9430	1.741192	0
0.9460	1.740997	0
0.9490	1.740803	0
0.9520	1.740611	0
0.9550	1.740421	0
0.9580	1.740233	0
0.9610	1.740046	0
0.9640	1.739860	0
0.9670	1.739676	0
0.9700	1.739494	0
0.9730	1.739313	0
0.9760	1.739134	0
0.9790	1.738956	0
0.9820	1.738779	0
0.9850	1.738604	0
0.9880	1.738430	0
0.9910	1.738258	0
0.9940	1.738086	0
0.9970	1.737916	0
1.0000	1.737748	0
1.0075	1.737332	0
1.0150	1.736924	0
1.0225	1.736523	0
1.0300	1.736129	0
1.0375	1.735743	0
1.0450	1.735362	0
1.0525	1.734989	0
1.0600	1.734621	0
1.0675	1.734260	0
1.0750	1.733904	0
1.0825	1.733554	0
1.0900	1.733209	0
1.0975	1.732869	0
1.1050	1.732535	0
1.1125	1.732205	0
1.1200	1.731880	0
1.1275	1.731560	0
1.1350	1.731244	0
1.1425	1.730932	0
1.1500	1.730624	0
1.1575	1.730321	0
1.1650	1.730021	0
1.1725	1.729725	0
1.1800	1.729433	0
1.1875	1.729144	0
1.1950	1.728858	0
1.2025	1.728576	0
1.2100	1.728297	0
1.2175	1.728021	0
1.2250	1.727748	0
1.2325	1.727478	0
1.2400	1.727210	0
1.2475	1.726946	0
1.2550	1.726684	0
1.2625	1.726424	0
1.2700	1.726167	0
1.2775	1.725913	0
1.2850	1.725661	0
1.2925	1.725411	0
1.3000	1.725163	0
1.3075	1.724917	0
1.3150	1.724673	0
1.3225	1.724431	0
1.3300	1.724192	0
1.3375	1.723954	0
1.3450	1.723717	0
1.3525	1.723483	0
1.3600	1.723250	0
1.3675	1.723019	0
1.3750	1.722789	0
1.3825	1.722561	0
1.3900	1.722335	0
1.3975	1.722110	0
1.4050	1.721886	0
1.4125	1.721663	0
1.4200	1.721442	0
1.4275	1.721222	0
1.4350	1.721004	0
1.4425	1.720786	0
1.4500	1.720570	0
1.4575	1.720355	0
1.4650	1.720141	0
1.4725	1.719927	0
1.4800	1.719715	0
1.4875	1.719504	0
1.4950	1.719294	0
1.5025	1.719085	0
1.5100	1.718876	0
1.5175	1.718668	0
1.5250	1.718461	0
1.5325	1.718255	0
1.5400	1.718050	0
1.5475	1.717845	0
1.5550	1.717641	0
1.5625	1.717438	0
1.5700	1.717236	0
1.5775	1.717034	0
1.5850	1.716832	0
1.5925	1.716631	0
1.6000	1.716431	0
1.6075	1.716231	0
1.6150	1.716032	0
1.6225	1.715833	0
1.6300	1.715635	0
1.6375	1.715437	0
1.6450	1.715240	0
1.6525	1.715043	0
1.6600	1.714846	0
1.6675	1.714650	0
1.6750	1.714454	0
1.6825	1.714258	0
1.6900	1.714063	0
