Material: organic / (C10H8O4)n - polyethylene terephthalate / Mironov
Optical constants. S. Yu. Mironov, V. N. Ginzburg, E. I. Gacheva, D. E. Silin, A. A. Kochetkov, Yu. A. Mamaev, A. A. Shaykin, E. A. Khazanov, G. A. Mourou. Use of polyethylene terephthalate for temporal recompression of intense femtosecond laser pulses. Laser Phys. Lett. 12, 025301 (2015)
Comments: Spectral analysis of self-phase modulation. Rough estimate. Reported range is (5–6)·10−20 m2/W.
Conditions: {"n2_method": "SSPM", "pulse_duration": "70e-12"}
wavelength (um)	n	2
0.92	5.5e-20
