Material: main / Al2O3 / Franta
Optical constants. D. Franta, D. Nečas, I. Ohlídal, A. Giglia. Dispersion model for optical thin films applicable in wide spectral range. Proc. SPIE 9628, 96281U (2015) (Numerical data kindly provided by Daniel Franta)
Comments: Film Al2O3; Deposited by e-beam evaporation on c-Si; 121.5 nm thick film with an amorphous (very fine polycrystalline) structure; Heterogenous data processing combining ellipsometric and spectrophotometric measurements; Room temperature.
Conditions: {"film_thickness": 1.215e-07, "substrate": "c-Si"}
wavelength (um)	n	k
0.114114	1.71641396175	0.830322020891
0.116772	1.76726883938	0.809259258029
0.119492	1.81561425741	0.783484961669
0.122276	1.860996674	0.75337261856
0.125124	1.90300731054	0.719325879451
0.128038	1.94128397903	0.68177627021
0.131021	1.97551254049	0.641179710175
0.134073	2.00542761056	0.59801242552
0.137196	2.03081236391	0.552766816519
0.140391	2.05149748263	0.505947792048
0.143661	2.06735945368	0.458070024952
0.147008	2.07831855638	0.409656515969
0.150432	2.08433700487	0.361238792025
0.153936	2.08541784277	0.313359016716
0.157522	2.0816053621	0.266574264538
0.161191	2.07298809081	0.221463209367
0.164945	2.05970585819	0.178635498445
0.168787	2.04196328824	0.13874410874
0.172719	2.02005366785	0.102500968288
0.176742	1.99440039974	0.0706959635775
0.180859	1.96563074312	0.0442188910223
0.185072	1.93471750243	0.0240823245379
0.189383	1.90330866808	0.0114390484951
0.193794	1.87529027928	0.00717758246872
0.198308	1.8540109281	0.00561744826756
0.202927	1.83626784108	0.00441813714626
0.207654	1.82094198523	0.00349329524526
0.212491	1.80746585349	0.00277689779269
0.21744	1.79547765679	0.00221920287479
0.222505	1.78472200607	0.00178280000176
0.227688	1.77500769806	0.00143950264248
0.232991	1.76618600596	0.00116800569519
0.238418	1.75813809524	0.000952142602736
0.243972	1.75076709874	0.000779593644605
0.249655	1.74399281529	0.000640928661335
0.25547	1.73774799875	0.000528896334345
0.261421	1.73197566801	0.000437895025256
0.26751	1.72662710271	0.000363577448808
0.273741	1.72166031669	0.00030255421919
0.280117	1.71703887405	0.000252170657433
0.286642	1.712730957	0.000210338066339
0.293319	1.70870862257	0.00017540564908
0.300151	1.70494720322	0.000146062872643
0.307142	1.70142481869	0.000121264726567
0.314297	1.69812197502	0.000100174268456
0.321618	1.69502123222	8.21182743144e-05
0.329109	1.69210692681	6.65528634529e-05
0.336775	1.68936493781	5.30367459671e-05
0.34462	1.68678248723	4.12103186029e-05
0.352647	1.6843479664	3.07792655105e-05
0.360861	1.68205077764	2.15016425402e-05
0.369266	1.67988116941	1.31776655932e-05
0.377868	1.67782997092	5.64160557257e-06
0.386669	1.6758868487	0
0.395676	1.67405035353	0
0.404893	1.67231338073	0
0.414324	1.67066845827	0
0.423975	1.66910942439	0
0.43385	1.66763074035	0
0.443956	1.66622733748	0
0.454297	1.66489454234	0
0.464879	1.6636280273	0
0.475707	1.66242377277	0
0.486788	1.66127803642	0
0.498127	1.66018732702	0
0.50973	1.65914838177	0
0.521603	1.65815814632	0
0.533752	1.65721375709	0
0.546185	1.65631252542	0
0.558907	1.65545192335	0
0.571926	1.65462957072	0
0.585248	1.65384322362	0
0.59888	1.65309076369	0
0.61283	1.65237018855	0
0.627104	1.65167960296	0
0.641712	1.65101721068	0
0.656659	1.65038130709	0
0.671955	1.64977027228	0
0.687606	1.64918256479	0
0.703623	1.64861671567	0
0.720012	1.64807132313	0
0.736783	1.64754504739	0
0.753945	1.64703660606	0
0.771507	1.64654476968	0
0.789478	1.64606835762	0
0.807867	1.64560623418	0
0.826685	1.645157305	0
0.845941	1.64472051354	0
0.865645	1.64429483791	0
0.885809	1.64387928771	0
0.906442	1.64347290116	0
0.927555	1.64307474222	0
0.949161	1.64268389796	0
0.97127	1.64229947595	0
0.993894	1.6419206018	0
1.01704	1.6415464167	0
1.04073	1.64117607519	0
1.06498	1.6408087428	0
1.08978	1.64044359384	0
1.11517	1.64007980928	0
1.14114	1.63971657455	0
1.16772	1.63935307748	0
1.19492	1.63898850616	0
1.22276	1.63862204681	0
1.25124	1.63825288182	0
1.28038	1.63788018753	0
1.31021	1.63750313214	0
1.34073	1.63712087373	0
1.37196	1.63673255774	0
1.40391	1.6363373152	0
1.43661	1.63593426011	0
1.47008	1.63552248753	0
1.50432	1.63510107073	0
1.53936	1.63466905894	0
1.57522	1.63422547537	4.76557352343e-309
1.61191	1.63376931331	1.14672070746e-293
1.64945	1.63329953486	5.13812170237e-279
1.68787	1.63281506706	4.63308099369e-265
1.72719	1.63231479919	9.05381810335e-252
1.76742	1.63179757972	4.11528850784e-239
1.80859	1.63126221335	4.65462725688e-227
1.85072	1.63070745684	1.39719723326e-215
1.89383	1.6301320156	1.18362478543e-204
1.93794	1.62953454073	3.00075381248e-194
1.98308	1.62891362302	2.40779493992e-184
2.02927	1.62826779085	6.45035198744e-175
2.07654	1.62759550392	6.0710471139e-166
2.12491	1.62689514952	2.10760474866e-157
2.1744	1.62616503579	2.82698015951e-149
2.22505	1.62540338758	1.53145567037e-141
2.27688	1.62460834023	3.49537278434e-134
2.32991	1.62377793271	3.49952053439e-127
2.38418	1.62291010003	1.59722304643e-120
2.43972	1.62200266761	3.44758068542e-114
2.49655	1.62105334162	3.64480002498e-108
2.5547	1.62005970204	1.95147869146e-102
2.61421	1.61901919163	5.46309603466e-97
2.6751	1.61792910596	8.24359708935e-92
2.73741	1.61678658416	6.90253161228e-87
2.80117	1.6155885952	3.29719817208e-82
2.86642	1.61433192562	9.22581590693e-78
2.93319	1.6130131666	1.55073533114e-73
3.00151	1.61162869531	1.60394635611e-69
3.07142	1.61017466195	1.04454299481e-65
3.14297	1.60864696818	4.37777127705e-62
3.21618	1.60704124875	1.20569598508e-58
3.29109	1.60535284996	2.22602513858e-55
3.36775	1.60357680084	2.80789042017e-52
3.4462	1.60170779084	2.46409510672e-49
3.52647	1.59974013808	1.53062147628e-46
3.60861	1.59766775367	6.84179396923e-44
3.69266	1.59548410941	2.23558779657e-41
3.77868	1.59318219399	5.42056696833e-39
3.86669	1.59075446247	9.89325240551e-37
3.95676	1.58819279699	1.37783509167e-34
4.04893	1.58548843554	1.48342971341e-32
4.14324	1.58263190972	1.25006928459e-30
4.23975	1.57961297677	8.34323308797e-29
4.3385	1.57642053445	4.46031091777e-27
4.43956	1.57304252441	1.93061675909e-25
4.54297	1.56946581202	6.83564995298e-24
4.64879	1.56567609691	1.99922594356e-22
4.75707	1.56165770694	4.8751753998e-21
4.86788	1.55739352997	1.00005633106e-19
4.98127	1.55286471974	1.74038129426e-18
5.0973	1.54805052958	2.59035092373e-17
5.21603	1.54292805698	3.3228613483e-16
5.33752	1.53747190219	3.70079232936e-15
5.46185	1.53165384486	3.60368773812e-14
5.58907	1.52544235586	3.08865383342e-13
5.71926	1.5188021032	2.34490934442e-12
5.85248	1.511693348	1.5865529375e-11
5.9888	1.50407115073	9.62209976398e-11
6.1283	1.49588434369	5.25982420619e-10
6.27104	1.48707438192	2.60524221656e-09
6.41712	1.47757388436	1.17512964879e-08
6.56659	1.46730449495	4.85032917925e-08
6.71955	1.45617439446	1.84034286778e-07
6.87606	1.4440747828	6.44727246658e-07
7.03623	1.43087485306	2.09425876428e-06
7.20012	1.41641511617	6.33308781271e-06
7.36783	1.40049722274	1.78987249627e-05
7.53945	1.38286958965	4.74599559156e-05
7.71507	1.36320426298	0.000118642829507
7.89478	1.34105805234	0.000282972521758
8.07867	1.3157949846	0.000667834694529
8.26685	1.2864752219	0.00166194097389
8.45941	1.25195957487	0.00439997271691
8.65645	1.21186117773	0.0111519474367
8.85809	1.16797602871	0.0240483427203
9.06442	1.12313645275	0.042051676981
9.27555	1.07629827826	0.0611161366637
9.49161	1.0205396974	0.0803950384004
9.7127	0.948538573211	0.107115296814
9.93894	0.859108957082	0.154794188801
10.1704	0.760960501774	0.239223595598
10.4073	0.677635840358	0.370496904889
10.6498	0.638515282932	0.533731751783
10.8978	0.647336512646	0.697818326751
11.1517	0.689454897598	0.847101353322
11.4114	0.75303512347	0.978965799614
11.6772	0.831331351407	1.09414622898
11.9492	0.920300637734	1.19363491392
12.2276	1.01714180319	1.27818409768
12.5124	1.11963470178	1.3483575099
12.8038	1.22585628993	1.40464464177
13.1021	1.33406451338	1.4475475872
13.4073	1.44265515899	1.47763631264
13.7196	1.5501536923	1.49557502259
14.0391	1.65521803456	1.50213197765
14.3661	1.75664645719	1.49817487041
14.7008	1.85338455711	1.48465859819
15.0432	1.94452833808	1.46261045432
15.3936	2.02932306515	1.43311585138
15.7522	2.10716185629	1.397304713
16.1191	2.17758279269	1.35634227967
16.4945	2.24027014953	1.31142184028
16.8787	2.29505803298	1.26376032422
17.2719	2.34194128891	1.21459127051
17.6742	2.38109330057	1.1651515087
18.0859	2.41288508673	1.11665901324
18.5072	2.43790405233	1.0702768561
18.9383	2.45696515373	1.02706245944
19.3794	2.47110831643	0.987903537393
19.8308	2.48156499442	0.953450614015
20.2927	2.489705386	0.924049168833
20.7654	2.49695229744	0.899690341528
21.2491	2.5046737492	0.879991371833
21.744	2.51406680229	0.86421678422
22.2505	2.52605132297	0.851343669906
22.7688	2.54119313316	0.840164498211
23.2991	2.55967087102	0.829411511929
23.8418	2.58129114336	0.817881615214
24.3972	2.60554573349	0.804541777134
24.9655	2.63169668949	0.788601488961
25.547	2.6588722792	0.769547658333
26.1421	2.68615874811	0.747145158114
26.751	2.71267755254	0.721411088612
27.3741	2.7376430135	0.692572411728
28.0117	2.76039964706	0.661015850627
28.6642	2.78044121997	0.627236985302
29.3319	2.7974149655	0.591793237609
30.0151	2.81111476283	0.555263458669
30.7142	2.82146684372	0.518215309793
31.4297	2.82851105715	0.481180574141
32.1618	2.83238009829	0.444637873032
32.9109	2.83327850358	0.409001890743
33.6775	2.831462682	0.374618046328
34.462	2.82722281206	0.341761521199
35.2647	2.82086708344	0.3106396057
36.0861	2.812708495	0.281396431062
36.9266	2.80305422321	0.254119280368
37.7868	2.79219743775	0.228845807058
38.6669	2.78041134981	0.205571621596
39.5676	2.76794522528	0.184257829696
40.4893	2.75502207134	0.164838214953
41.4324	2.74183770047	0.1472258536
42.3975	2.72856088923	0.131319028405
43.385	2.71533437048	0.117006373345
44.3956	2.70227642755	0.10417123137
45.4297	2.68948288994	0.0926952458112
46.4879	2.67702936389	0.0824612332778
47.5707	2.66497356241	0.0733554039098
48.6788	2.65335762979	0.0652690051279
49.8127	2.64221038178	0.0580994692335
50.973	2.63154940639	0.051751144667
52.1603	2.6213829894	0.0461356867947
53.3752	2.61171184495	0.0411721778459
54.6185	2.60253064408	0.036787037991
55.8907	2.59382934294	0.0329137813043
57.1926	2.58559432034	0.0294926620232
58.5248	2.5778093377	0.026470248573
59.888	2.57045633816	0.0237989554889
61.283	2.56351610145	0.0214365568539
62.7104	2.55696877382	0.0193456991914
64.1712	2.55079428867	0.0174934270001
65.6659	2.54497269503	0.0158507301536
67.1955	2.5394844085	0.0143921192214
68.7606	2.5343103975	0.0130952322686
70.3623	2.52943231685	0.0119404747693
72.0012	2.52483259838	0.0109106928487
73.6783	2.52049450767	0.00999087903743
75.3945	2.5164021737	0.00916790902234
77.1507	2.51254059751	0.00843030742693
78.9478	2.50889564541	0.00776804039512
80.7867	2.50545402977	0.00717233264654
82.6685	2.50220328181	0.00663550665897
84.5941	2.49913171839	0.00615084170717
86.5645	2.49622840476	0.00571245060205
88.5809	2.49348311549	0.00531517212001
90.6442	2.49088629402	0.00495447727925
92.7555	2.48842901263	0.00462638778436
94.9161	2.48610293278	0.00432740513194
97.127	2.48390026688	0.00405444902875
99.3894	2.48181374127	0.00380480392646
101.704	2.47983656105	0.00357607261648
104.073	2.4779623775	0.00336613595555
106.498	2.47618525629	0.00317311791189
108.978	2.47449964825	0.00299535521953
111.517	2.47290036234	0.00283137102377
114.114	2.47138253998	0.00267985198187
116.772	2.46994163125	0.00253962835278
119.492	2.46857337342	0.00240965667257
122.276	2.46727377006	0.00228900466856
125.124	2.46603907285	0.00217683810884
