Material: main / ZrSe2 / Zotev-e
Optical constants. P. G. Zotev, Y. Wang, D. Andres-Penares, T. Severs-Millard, S. Randerson, X. Hu, L. Sortino, C. Louca, M. Brotons-Gisbert, T. Huq, S. Vezzoli, R. Sapienza, T. F. Krauss, B. D. Gerardot, A. I. Tartakovskii. Van der Waals materials for applications in nanophotonics. Laser and Photonics Rev. 17, 2200957 (2023) (Numerical data kindly provided by Panaiot Zotev)
Comments: Multilayer crystals. Out-of-plane (extraordinary ray, e). Room temperature.
wavelength (um)	n	k
0.360	2.26634	0
0.363	2.26600	0
0.366	2.26567	0
0.370	2.26535	0
0.373	2.26504	0
0.376	2.26473	0
0.379	2.26443	0
0.382	2.26414	0
0.386	2.26386	0
0.389	2.26358	0
0.392	2.26331	0
0.395	2.26305	0
0.398	2.26279	0
0.402	2.26254	0
0.405	2.26230	0
0.408	2.26206	0
0.411	2.26183	0
0.414	2.26160	0
0.418	2.26138	0
0.421	2.26116	0
0.424	2.26095	0
0.427	2.26074	0
0.430	2.26053	0
0.434	2.26033	0
0.437	2.26014	0
0.440	2.25995	0
0.443	2.25976	0
0.446	2.25958	0
0.450	2.25940	0
0.453	2.25923	0
0.456	2.25906	0
0.459	2.25889	0
0.462	2.25873	0
0.466	2.25856	0
0.469	2.25841	0
0.472	2.25825	0
0.475	2.25810	0
0.478	2.25795	0
0.482	2.25781	0
0.485	2.25767	0
0.488	2.25753	0
0.491	2.25739	0
0.494	2.25726	0
0.498	2.25712	0
0.501	2.25700	0
0.504	2.25687	0
0.507	2.25675	0
0.510	2.25662	0
0.514	2.25650	0
0.517	2.25639	0
0.520	2.25627	0
0.523	2.25616	0
0.526	2.25605	0
0.530	2.25594	0
0.532	2.25585	0
0.534	2.25578	0
0.538	2.25567	0
0.541	2.25557	0
0.544	2.25547	0
0.547	2.25537	0
0.550	2.25528	0
0.554	2.25518	0
0.557	2.25509	0
0.560	2.25499	0
0.563	2.25490	0
0.566	2.25481	0
0.570	2.25473	0
0.573	2.25464	0
0.576	2.25456	0
0.579	2.25447	0
0.582	2.25439	0
0.586	2.25431	0
0.589	2.25423	0
0.592	2.25415	0
0.595	2.25408	0
0.598	2.25400	0
0.602	2.25393	0
0.605	2.25385	0
0.608	2.25378	0
0.611	2.25371	0
0.614	2.25364	0
0.618	2.25357	0
0.621	2.25351	0
0.624	2.25344	0
0.627	2.25337	0
0.630	2.25331	0
0.634	2.25324	0
0.637	2.25318	0
0.640	2.25312	0
0.643	2.25306	0
0.646	2.25300	0
0.650	2.25294	0
0.653	2.25288	0
0.656	2.25283	0
0.659	2.25277	0
0.662	2.25271	0
0.666	2.25266	0
0.669	2.25260	0
0.672	2.25255	0
0.675	2.25250	0
0.678	2.25245	0
0.682	2.25240	0
0.685	2.25235	0
0.688	2.25230	0
0.691	2.25225	0
0.694	2.25220	0
0.698	2.25215	0
0.701	2.25210	0
0.704	2.25206	0
0.707	2.25201	0
0.710	2.25197	0
0.714	2.25192	0
0.717	2.25188	0
0.720	2.25184	0
0.723	2.25179	0
0.726	2.25175	0
0.730	2.25171	0
0.733	2.25167	0
0.736	2.25163	0
0.739	2.25159	0
0.742	2.25155	0
0.746	2.25151	0
0.749	2.25147	0
0.752	2.25143	0
0.755	2.25140	0
0.758	2.25136	0
0.762	2.25132	0
0.765	2.25129	0
0.768	2.25125	0
0.771	2.25122	0
0.774	2.25118	0
0.778	2.25115	0
0.781	2.25111	0
0.784	2.25108	0
0.787	2.25105	0
0.790	2.25101	0
0.794	2.25098	0
0.797	2.25095	0
0.800	2.25092	0
0.803	2.25089	0
0.806	2.25086	0
0.810	2.25082	0
0.813	2.25079	0
0.816	2.25077	0
0.819	2.25074	0
0.822	2.25071	0
0.826	2.25068	0
0.829	2.25065	0
0.832	2.25062	0
0.835	2.25059	0
0.838	2.25057	0
0.842	2.25054	0
0.845	2.25051	0
0.848	2.25049	0
0.851	2.25046	0
0.854	2.25043	0
0.858	2.25041	0
0.861	2.25038	0
0.864	2.25036	0
0.867	2.25033	0
0.870	2.25031	0
0.874	2.25028	0
0.877	2.25026	0
0.880	2.25024	0
0.883	2.25021	0
0.886	2.25019	0
0.890	2.25017	0
0.893	2.25015	0
0.896	2.25012	0
0.899	2.25010	0
0.902	2.25008	0
0.906	2.25006	0
0.909	2.25004	0
0.912	2.25001	0
0.915	2.24999	0
0.918	2.24997	0
0.922	2.24995	0
0.925	2.24993	0
0.928	2.24991	0
0.931	2.24989	0
0.934	2.24987	0
0.938	2.24985	0
0.941	2.24983	0
0.944	2.24981	0
0.947	2.24979	0
0.950	2.24978	0
0.954	2.24976	0
0.957	2.24974	0
0.960	2.24972	0
0.963	2.24970	0
0.966	2.24968	0
0.970	2.24967	0
0.973	2.24965	0
0.976	2.24963	0
0.979	2.24961	0
0.982	2.24960	0
0.986	2.24958	0
0.989	2.24956	0
0.992	2.24955	0
0.995	2.24953	0
0.998	2.24952	0
