Material: main / ZrSe2 / Zotev-o
Optical constants. P. G. Zotev, Y. Wang, D. Andres-Penares, T. Severs-Millard, S. Randerson, X. Hu, L. Sortino, C. Louca, M. Brotons-Gisbert, T. Huq, S. Vezzoli, R. Sapienza, T. F. Krauss, B. D. Gerardot, A. I. Tartakovskii. Van der Waals materials for applications in nanophotonics. Laser and Photonics Rev. 17, 2200957 (2023) (Numerical data kindly provided by Panaiot Zotev)
Comments: Multilayer crystals. In-plane (ordinary ray, o). Room temperature.
wavelength (um)	n	k
0.360	2.756	1.327
0.363	2.643	1.254
0.366	2.535	1.201
0.370	2.432	1.165
0.373	2.336	1.144
0.376	2.247	1.135
0.379	2.163	1.135
0.382	2.087	1.144
0.386	2.016	1.161
0.389	1.952	1.183
0.392	1.894	1.211
0.395	1.841	1.244
0.398	1.794	1.280
0.402	1.753	1.320
0.405	1.718	1.363
0.408	1.687	1.407
0.411	1.662	1.453
0.414	1.642	1.501
0.418	1.626	1.549
0.421	1.614	1.598
0.424	1.607	1.647
0.427	1.603	1.697
0.430	1.603	1.746
0.434	1.607	1.795
0.437	1.614	1.844
0.440	1.625	1.892
0.443	1.638	1.940
0.446	1.655	1.987
0.450	1.675	2.034
0.453	1.697	2.079
0.456	1.723	2.124
0.459	1.751	2.168
0.462	1.783	2.211
0.466	1.817	2.252
0.469	1.855	2.292
0.472	1.895	2.330
0.475	1.938	2.367
0.478	1.984	2.401
0.482	2.033	2.432
0.485	2.085	2.461
0.488	2.139	2.487
0.491	2.195	2.509
0.494	2.254	2.527
0.498	2.313	2.540
0.501	2.374	2.550
0.504	2.436	2.554
0.507	2.497	2.554
0.510	2.557	2.549
0.514	2.615	2.539
0.517	2.672	2.526
0.520	2.725	2.508
0.523	2.775	2.487
0.526	2.822	2.464
0.530	2.865	2.439
0.532	2.895	2.419
0.534	2.922	2.399
0.538	2.956	2.373
0.541	2.987	2.347
0.544	3.015	2.321
0.547	3.040	2.296
0.550	3.064	2.273
0.554	3.086	2.250
0.557	3.108	2.229
0.560	3.128	2.209
0.563	3.148	2.189
0.566	3.167	2.171
0.570	3.187	2.153
0.573	3.206	2.135
0.576	3.224	2.118
0.579	3.244	2.101
0.582	3.263	2.084
0.586	3.281	2.066
0.589	3.300	2.049
0.592	3.318	2.031
0.595	3.336	2.013
0.598	3.353	1.994
0.602	3.370	1.975
0.605	3.387	1.955
0.608	3.402	1.935
0.611	3.417	1.915
0.614	3.431	1.894
0.618	3.444	1.873
0.621	3.455	1.852
0.624	3.466	1.830
0.627	3.476	1.808
0.630	3.484	1.787
0.634	3.491	1.765
0.637	3.496	1.744
0.640	3.500	1.723
0.643	3.502	1.702
0.646	3.503	1.682
0.650	3.502	1.662
0.653	3.500	1.643
0.656	3.495	1.626
0.659	3.489	1.609
0.662	3.481	1.594
0.666	3.471	1.581
0.669	3.460	1.569
0.672	3.445	1.560
0.675	3.428	1.553
0.678	3.409	1.549
0.682	3.387	1.550
0.685	3.363	1.555
0.688	3.337	1.565
0.691	3.307	1.583
0.694	3.275	1.609
0.698	3.242	1.645
0.701	3.207	1.695
0.704	3.174	1.761
0.707	3.144	1.847
0.710	3.125	1.958
0.714	3.124	2.098
0.717	3.157	2.269
0.720	3.241	2.468
0.723	3.403	2.681
0.726	3.666	2.872
0.730	4.036	2.986
0.733	4.470	2.954
0.736	4.869	2.745
0.739	5.141	2.403
0.742	5.257	2.033
0.746	5.253	1.710
0.749	5.188	1.454
0.752	5.096	1.261
0.755	4.998	1.116
0.758	4.904	1.006
0.762	4.817	0.921
0.765	4.738	0.854
0.768	4.668	0.800
0.771	4.605	0.756
0.774	4.548	0.719
0.778	4.496	0.687
0.781	4.450	0.659
0.784	4.407	0.635
0.787	4.369	0.613
0.790	4.333	0.593
0.794	4.300	0.575
0.797	4.269	0.558
0.800	4.241	0.543
0.803	4.214	0.528
0.806	4.189	0.515
0.810	4.165	0.502
0.813	4.143	0.490
0.816	4.122	0.478
0.819	4.102	0.467
0.822	4.083	0.457
0.826	4.064	0.446
0.829	4.047	0.437
0.832	4.030	0.427
0.835	4.014	0.418
0.838	3.998	0.409
0.842	3.984	0.401
0.845	3.969	0.392
0.848	3.955	0.384
0.851	3.942	0.377
0.854	3.929	0.369
0.858	3.916	0.362
0.861	3.904	0.354
0.864	3.892	0.347
0.867	3.881	0.340
0.870	3.869	0.334
0.874	3.858	0.327
0.877	3.847	0.321
0.880	3.837	0.315
0.883	3.827	0.309
0.886	3.817	0.303
0.890	3.807	0.297
0.893	3.798	0.291
0.896	3.788	0.286
0.899	3.779	0.280
0.902	3.770	0.275
0.906	3.761	0.270
0.909	3.753	0.265
0.912	3.744	0.260
0.915	3.736	0.255
0.918	3.728	0.250
0.922	3.720	0.246
0.925	3.712	0.241
0.928	3.704	0.237
0.931	3.697	0.232
0.934	3.689	0.228
0.938	3.682	0.224
0.941	3.675	0.220
0.944	3.667	0.215
0.947	3.660	0.212
0.950	3.654	0.208
0.954	3.647	0.204
0.957	3.640	0.200
0.960	3.634	0.196
0.963	3.627	0.193
0.966	3.621	0.189
0.970	3.614	0.186
0.973	3.608	0.182
0.976	3.602	0.179
0.979	3.596	0.176
0.982	3.590	0.173
0.986	3.584	0.170
0.989	3.579	0.166
0.992	3.573	0.163
0.995	3.567	0.160
0.998	3.562	0.158
