Material: main / GaS / Zotev-e
Optical constants. P. G. Zotev, Y. Wang, D. Andres-Penares, T. Severs-Millard, S. Randerson, X. Hu, L. Sortino, C. Louca, M. Brotons-Gisbert, T. Huq, S. Vezzoli, R. Sapienza, T. F. Krauss, B. D. Gerardot, A. I. Tartakovskii. Van der Waals materials for applications in nanophotonics. Laser and Photonics Rev. 17, 2200957 (2023) (Numerical data kindly provided by Panaiot Zotev)
Comments: Multilayer crystals. Out-of-plane (extraordinary ray, e). Room temperature.
wavelength (um)	n	k
0.3600	2.62206	0
0.3632	2.61455	0
0.3664	2.60731	0
0.3696	2.60033	0
0.3728	2.59360	0
0.3760	2.58709	0
0.3792	2.58081	0
0.3824	2.57474	0
0.3856	2.56888	0
0.3888	2.56320	0
0.3920	2.55770	0
0.3952	2.55238	0
0.3984	2.54723	0
0.4016	2.54224	0
0.4048	2.53740	0
0.4080	2.53271	0
0.4112	2.52816	0
0.4144	2.52374	0
0.4176	2.51945	0
0.4208	2.51529	0
0.4240	2.51124	0
0.4272	2.50731	0
0.4304	2.50349	0
0.4336	2.49977	0
0.4368	2.49615	0
0.4400	2.49264	0
0.4432	2.48921	0
0.4464	2.48588	0
0.4496	2.48263	0
0.4528	2.47947	0
0.4560	2.47639	0
0.4592	2.47338	0
0.4624	2.47046	0
0.4656	2.46760	0
0.4688	2.46482	0
0.4720	2.46210	0
0.4752	2.45945	0
0.4784	2.45686	0
0.4816	2.45434	0
0.4848	2.45187	0
0.4880	2.44946	0
0.4912	2.44711	0
0.4944	2.44481	0
0.4976	2.44256	0
0.5008	2.44036	0
0.5040	2.43821	0
0.5072	2.43611	0
0.5104	2.43406	0
0.5136	2.43205	0
0.5168	2.43008	0
0.5200	2.42816	0
0.5232	2.42628	0
0.5264	2.42443	0
0.5296	2.42263	0
0.5321	2.42124	0
0.5344	2.41999	0
0.5376	2.41828	0
0.5408	2.41660	0
0.5440	2.41495	0
0.5472	2.41334	0
0.5504	2.41176	0
0.5536	2.41021	0
0.5568	2.40869	0
0.5600	2.40720	0
0.5632	2.40574	0
0.5664	2.40431	0
0.5696	2.40291	0
0.5728	2.40153	0
0.5760	2.40018	0
0.5792	2.39885	0
0.5824	2.39755	0
0.5856	2.39627	0
0.5888	2.39501	0
0.5920	2.39378	0
0.5952	2.39257	0
0.5984	2.39138	0
0.6016	2.39021	0
0.6048	2.38906	0
0.6080	2.38794	0
0.6112	2.38683	0
0.6144	2.38574	0
0.6176	2.38467	0
0.6208	2.38362	0
0.6240	2.38259	0
0.6272	2.38157	0
0.6304	2.38057	0
0.6336	2.37959	0
0.6368	2.37863	0
0.6400	2.37768	0
0.6432	2.37674	0
0.6464	2.37582	0
0.6496	2.37492	0
0.6528	2.37403	0
0.6560	2.37315	0
0.6592	2.37229	0
0.6624	2.37144	0
0.6656	2.37061	0
0.6688	2.36979	0
0.6720	2.36898	0
0.6752	2.36818	0
0.6784	2.36740	0
0.6816	2.36663	0
0.6848	2.36587	0
0.6880	2.36512	0
0.6912	2.36438	0
0.6944	2.36366	0
0.6976	2.36294	0
0.7008	2.36224	0
0.7040	2.36154	0
0.7072	2.36086	0
0.7104	2.36018	0
0.7136	2.35952	0
0.7168	2.35886	0
0.7200	2.35822	0
0.7232	2.35758	0
0.7264	2.35696	0
0.7296	2.35634	0
0.7328	2.35573	0
0.7360	2.35513	0
0.7392	2.35453	0
0.7424	2.35395	0
0.7456	2.35337	0
0.7488	2.35280	0
0.7520	2.35224	0
0.7552	2.35169	0
0.7584	2.35114	0
0.7616	2.35061	0
0.7648	2.35007	0
0.7680	2.34955	0
0.7712	2.34903	0
0.7744	2.34852	0
0.7776	2.34802	0
0.7808	2.34752	0
0.7840	2.34703	0
0.7872	2.34655	0
0.7904	2.34607	0
0.7936	2.34560	0
0.7968	2.34513	0
0.8000	2.34467	0
0.8032	2.34422	0
0.8064	2.34377	0
0.8096	2.34333	0
0.8128	2.34289	0
0.8160	2.34246	0
0.8192	2.34203	0
0.8224	2.34161	0
0.8256	2.34120	0
0.8288	2.34079	0
0.8320	2.34038	0
0.8352	2.33998	0
0.8384	2.33958	0
0.8416	2.33919	0
0.8448	2.33881	0
0.8480	2.33842	0
0.8512	2.33805	0
0.8544	2.33767	0
0.8576	2.33730	0
0.8608	2.33694	0
0.8640	2.33658	0
0.8672	2.33623	0
0.8704	2.33587	0
0.8736	2.33553	0
0.8768	2.33518	0
0.8800	2.33484	0
0.8832	2.33451	0
0.8864	2.33417	0
0.8896	2.33385	0
0.8928	2.33352	0
0.8960	2.33320	0
0.8992	2.33288	0
0.9024	2.33257	0
0.9056	2.33226	0
0.9088	2.33195	0
0.9120	2.33165	0
0.9152	2.33135	0
0.9184	2.33105	0
0.9216	2.33076	0
0.9248	2.33047	0
0.9280	2.33018	0
0.9312	2.32990	0
0.9344	2.32962	0
0.9376	2.32934	0
0.9408	2.32906	0
0.9440	2.32879	0
0.9472	2.32852	0
0.9504	2.32826	0
0.9536	2.32799	0
0.9568	2.32773	0
0.9600	2.32747	0
0.9632	2.32722	0
0.9664	2.32696	0
0.9696	2.32671	0
0.9728	2.32647	0
0.9760	2.32622	0
0.9792	2.32598	0
0.9824	2.32574	0
0.9856	2.32550	0
0.9888	2.32526	0
0.9920	2.32503	0
0.9952	2.32480	0
0.9984	2.32457	0
