Material: main / GaS / Zotev-o
Optical constants. P. G. Zotev, Y. Wang, D. Andres-Penares, T. Severs-Millard, S. Randerson, X. Hu, L. Sortino, C. Louca, M. Brotons-Gisbert, T. Huq, S. Vezzoli, R. Sapienza, T. F. Krauss, B. D. Gerardot, A. I. Tartakovskii. Van der Waals materials for applications in nanophotonics. Laser and Photonics Rev. 17, 2200957 (2023) (Numerical data kindly provided by Panaiot Zotev)
Comments: Multilayer crystals. In-plane (ordinary ray, o). Room temperature.
wavelength (um)	n	k
0.3600	3.11975	0
0.3632	3.10453	0
0.3664	3.08995	0
0.3696	3.07597	0
0.3728	3.06257	0
0.3760	3.04969	0
0.3792	3.03732	0
0.3824	3.02543	0
0.3856	3.01398	0
0.3888	3.00296	0
0.3920	2.99235	0
0.3952	2.98212	0
0.3984	2.97225	0
0.4016	2.96272	0
0.4048	2.95352	0
0.4080	2.94464	0
0.4112	2.93605	0
0.4144	2.92775	0
0.4176	2.91971	0
0.4208	2.91193	0
0.4240	2.90440	0
0.4272	2.89710	0
0.4304	2.89002	0
0.4336	2.88316	0
0.4368	2.87651	0
0.4400	2.87006	0
0.4432	2.86379	0
0.4464	2.85770	0
0.4496	2.85179	0
0.4528	2.84605	0
0.4560	2.84046	0
0.4592	2.83503	0
0.4624	2.82975	0
0.4656	2.82461	0
0.4688	2.81960	0
0.4720	2.81473	0
0.4752	2.80999	0
0.4784	2.80537	0
0.4816	2.80086	0
0.4848	2.79647	0
0.4880	2.79220	0
0.4912	2.78802	0
0.4944	2.78395	0
0.4976	2.77998	0
0.5008	2.77610	0
0.5040	2.77232	0
0.5072	2.76862	0
0.5104	2.76502	0
0.5136	2.76149	0
0.5168	2.75805	0
0.5200	2.75468	0
0.5232	2.75139	0
0.5264	2.74818	0
0.5296	2.74503	0
0.5321	2.74262	0
0.5344	2.74044	0
0.5376	2.73747	0
0.5408	2.73456	0
0.5440	2.73171	0
0.5472	2.72892	0
0.5504	2.72619	0
0.5536	2.72351	0
0.5568	2.72090	0
0.5600	2.71833	0
0.5632	2.71582	0
0.5664	2.71336	0
0.5696	2.71094	0
0.5728	2.70858	0
0.5760	2.70626	0
0.5792	2.70399	0
0.5824	2.70176	0
0.5856	2.69957	0
0.5888	2.69743	0
0.5920	2.69532	0
0.5952	2.69326	0
0.5984	2.69123	0
0.6016	2.68925	0
0.6048	2.68729	0
0.6080	2.68538	0
0.6112	2.68350	0
0.6144	2.68165	0
0.6176	2.67984	0
0.6208	2.67806	0
0.6240	2.67631	0
0.6272	2.67459	0
0.6304	2.67290	0
0.6336	2.67124	0
0.6368	2.66961	0
0.6400	2.66801	0
0.6432	2.66643	0
0.6464	2.66489	0
0.6496	2.66336	0
0.6528	2.66187	0
0.6560	2.66039	0
0.6592	2.65895	0
0.6624	2.65752	0
0.6656	2.65612	0
0.6688	2.65474	0
0.6720	2.65338	0
0.6752	2.65205	0
0.6784	2.65074	0
0.6816	2.64945	0
0.6848	2.64817	0
0.6880	2.64692	0
0.6912	2.64569	0
0.6944	2.64447	0
0.6976	2.64328	0
0.7008	2.64210	0
0.7040	2.64094	0
0.7072	2.63980	0
0.7104	2.63868	0
0.7136	2.63757	0
0.7168	2.63648	0
0.7200	2.63540	0
0.7232	2.63435	0
0.7264	2.63330	0
0.7296	2.63227	0
0.7328	2.63126	0
0.7360	2.63026	0
0.7392	2.62928	0
0.7424	2.62831	0
0.7456	2.62735	0
0.7488	2.62641	0
0.7520	2.62548	0
0.7552	2.62456	0
0.7584	2.62366	0
0.7616	2.62276	0
0.7648	2.62188	0
0.7680	2.62102	0
0.7712	2.62016	0
0.7744	2.61932	0
0.7776	2.61849	0
0.7808	2.61766	0
0.7840	2.61685	0
0.7872	2.61605	0
0.7904	2.61527	0
0.7936	2.61449	0
0.7968	2.61372	0
0.8000	2.61296	0
0.8032	2.61221	0
0.8064	2.61147	0
0.8096	2.61074	0
0.8128	2.61002	0
0.8160	2.60931	0
0.8192	2.60861	0
0.8224	2.60792	0
0.8256	2.60723	0
0.8288	2.60655	0
0.8320	2.60589	0
0.8352	2.60523	0
0.8384	2.60458	0
0.8416	2.60393	0
0.8448	2.60330	0
0.8480	2.60267	0
0.8512	2.60205	0
0.8544	2.60144	0
0.8576	2.60083	0
0.8608	2.60024	0
0.8640	2.59965	0
0.8672	2.59906	0
0.8704	2.59849	0
0.8736	2.59792	0
0.8768	2.59735	0
0.8800	2.59680	0
0.8832	2.59625	0
0.8864	2.59570	0
0.8896	2.59516	0
0.8928	2.59463	0
0.8960	2.59411	0
0.8992	2.59359	0
0.9024	2.59308	0
0.9056	2.59257	0
0.9088	2.59207	0
0.9120	2.59157	0
0.9152	2.59108	0
0.9184	2.59059	0
0.9216	2.59011	0
0.9248	2.58964	0
0.9280	2.58917	0
0.9312	2.58871	0
0.9344	2.58825	0
0.9376	2.58779	0
0.9408	2.58734	0
0.9440	2.58690	0
0.9472	2.58646	0
0.9504	2.58602	0
0.9536	2.58559	0
0.9568	2.58517	0
0.9600	2.58475	0
0.9632	2.58433	0
0.9664	2.58392	0
0.9696	2.58351	0
0.9728	2.58311	0
0.9760	2.58271	0
0.9792	2.58231	0
0.9824	2.58192	0
0.9856	2.58153	0
0.9888	2.58115	0
0.9920	2.58077	0
0.9952	2.58039	0
0.9984	2.58002	0
