Material: main / Ti3C2 / Panova
Optical constants. D. A. Panova, G. I. Tselikov, G. A. Ermolaev, A. V. Syuy, D. S. Zimbovskii, O. O. Kapitanova, D. I. Yakubovsky, A. B. Mazitov, I. A. Kruglov, A. A. Vyshnevyy, A. V. Arsenin, V. S. Volkov. Broadband optical properties of Ti3C2 MXene revisited. Opt. Lett., 49, 25–28 (2024) (Numerical data kindly provided by Georgy Ermolaev)
Comments: Broadband optical constants of Ti3C2 in the spectral range 30–3300 nm.
wavelength (um)	n	k
0.300	1.79774	0.94287
0.303	1.80239	0.99540
0.306	1.81771	1.03939
0.309	1.84110	1.07449
0.312	1.87024	1.10064
0.315	1.90308	1.11803
0.318	1.93778	1.12708
0.321	1.97274	1.12840
0.324	2.00664	1.12279
0.327	2.03838	1.11115
0.330	2.06714	1.09448
0.333	2.09238	1.07378
0.336	2.11374	1.05006
0.339	2.13112	1.02422
0.342	2.14455	0.99711
0.345	2.15421	0.96943
0.348	2.16036	0.94177
0.351	2.16331	0.91463
0.354	2.16340	0.88836
0.357	2.16098	0.86323
0.360	2.15640	0.83944
0.363	2.14996	0.81711
0.366	2.14197	0.79631
0.369	2.13269	0.77707
0.372	2.12235	0.75937
0.375	2.11117	0.74320
0.378	2.09930	0.72851
0.381	2.08693	0.71525
0.384	2.07416	0.70334
0.387	2.06112	0.69274
0.390	2.04791	0.68336
0.393	2.03460	0.67514
0.396	2.02126	0.66802
0.399	2.00795	0.66194
0.402	1.99472	0.65682
0.405	1.98161	0.65262
0.408	1.96866	0.64927
0.411	1.95588	0.64673
0.414	1.94331	0.64496
0.417	1.93096	0.64389
0.420	1.91886	0.64349
0.423	1.90701	0.64373
0.426	1.89542	0.64456
0.429	1.88411	0.64594
0.432	1.87308	0.64785
0.435	1.86233	0.65025
0.438	1.85188	0.65312
0.441	1.84172	0.65642
0.444	1.83186	0.66013
0.447	1.82230	0.66422
0.450	1.81304	0.66868
0.453	1.80407	0.67348
0.456	1.79541	0.67859
0.459	1.78705	0.68401
0.462	1.77899	0.68970
0.465	1.77122	0.69565
0.468	1.76375	0.70185
0.471	1.75657	0.70827
0.474	1.74969	0.71490
0.477	1.74309	0.72172
0.480	1.73677	0.72873
0.483	1.73074	0.73590
0.486	1.72498	0.74323
0.489	1.71949	0.75069
0.492	1.71427	0.75828
0.495	1.70932	0.76598
0.498	1.70462	0.77379
0.501	1.70018	0.78169
0.504	1.69599	0.78967
0.507	1.69204	0.79773
0.510	1.68833	0.80584
0.513	1.68486	0.81401
0.516	1.68160	0.82223
0.519	1.67857	0.83049
0.522	1.67576	0.83877
0.525	1.67315	0.84708
0.528	1.67075	0.85541
0.531	1.66854	0.86374
0.534	1.66652	0.87208
0.537	1.66469	0.88043
0.540	1.66303	0.88877
0.543	1.66154	0.89710
0.546	1.66023	0.90541
0.549	1.65906	0.91371
0.552	1.65806	0.92199
0.555	1.65719	0.93025
0.558	1.65647	0.93849
0.561	1.65589	0.94670
0.564	1.65543	0.95488
0.567	1.65510	0.96303
0.570	1.65489	0.97115
0.573	1.65479	0.97924
0.576	1.65479	0.98730
0.579	1.65490	0.99533
0.582	1.65511	1.00333
0.585	1.65541	1.01130
0.588	1.65580	1.01924
0.591	1.65628	1.02715
0.594	1.65683	1.03504
0.597	1.65747	1.04290
0.600	1.65818	1.05074
0.603	1.65896	1.05856
0.606	1.65981	1.06635
0.609	1.66072	1.07413
0.612	1.66170	1.08190
0.615	1.66274	1.08965
0.618	1.66384	1.09740
0.621	1.66499	1.10514
0.624	1.66621	1.11288
0.627	1.66748	1.12062
0.630	1.66880	1.12836
0.633	1.67018	1.13611
0.636	1.67162	1.14387
0.639	1.67311	1.15164
0.642	1.67466	1.15943
0.645	1.67627	1.16724
0.648	1.67794	1.17508
0.651	1.67967	1.18293
0.654	1.68147	1.19082
0.657	1.68333	1.19875
0.660	1.68526	1.20671
0.663	1.68727	1.21471
0.666	1.68936	1.22275
0.669	1.69152	1.23083
0.672	1.69377	1.23897
0.675	1.69611	1.24715
0.678	1.69856	1.25538
0.681	1.70110	1.26366
0.684	1.70375	1.27200
0.687	1.70652	1.28039
0.690	1.70941	1.28884
0.693	1.71243	1.29734
0.696	1.71559	1.30589
0.699	1.71889	1.31450
0.702	1.72235	1.32316
0.705	1.72596	1.33187
0.708	1.72976	1.34063
0.711	1.73373	1.34943
0.714	1.73788	1.35827
0.717	1.74224	1.36714
0.720	1.74681	1.37604
0.723	1.75159	1.38497
0.726	1.75661	1.39391
0.729	1.76186	1.40285
0.732	1.76735	1.41179
0.735	1.77310	1.42072
0.738	1.77911	1.42963
0.741	1.78540	1.43849
0.744	1.79196	1.44731
0.747	1.79882	1.45606
0.750	1.80596	1.46473
0.753	1.81341	1.47330
0.756	1.82116	1.48175
0.759	1.82922	1.49008
0.762	1.83759	1.49825
0.765	1.84627	1.50625
0.768	1.85527	1.51405
0.771	1.86458	1.52164
0.774	1.87419	1.52900
0.777	1.88411	1.53609
0.780	1.89433	1.54289
0.783	1.90484	1.54940
0.786	1.91562	1.55557
0.789	1.92666	1.56139
0.792	1.93796	1.56683
0.795	1.94949	1.57187
0.798	1.96124	1.57650
0.801	1.97318	1.58069
0.804	1.98529	1.58442
0.807	1.99755	1.58768
0.810	2.00993	1.59045
0.813	2.02239	1.59272
0.816	2.03492	1.59447
0.819	2.04748	1.59569
0.822	2.06004	1.59639
0.825	2.07257	1.59656
0.828	2.08502	1.59619
0.831	2.09738	1.59528
0.834	2.10960	1.59385
0.837	2.12165	1.59189
0.840	2.13350	1.58943
0.843	2.14512	1.58646
0.846	2.15647	1.58301
0.849	2.16754	1.57910
0.852	2.17828	1.57474
0.855	2.18869	1.56996
0.858	2.19872	1.56477
0.861	2.20837	1.55921
0.864	2.21761	1.55330
0.867	2.22642	1.54708
0.870	2.23480	1.54056
0.873	2.24273	1.53377
0.876	2.25020	1.52676
0.879	2.25721	1.51953
0.882	2.26376	1.51214
0.885	2.26983	1.50459
0.888	2.27544	1.49693
0.891	2.28058	1.48917
0.894	2.28526	1.48135
0.897	2.28948	1.47349
0.900	2.29326	1.46561
0.903	2.29659	1.45773
0.906	2.29950	1.44989
0.909	2.30199	1.44209
0.912	2.30407	1.43435
0.915	2.30576	1.42669
0.918	2.30706	1.41913
0.921	2.30800	1.41169
0.924	2.30859	1.40437
0.927	2.30884	1.39718
0.930	2.30877	1.39014
0.933	2.30839	1.38326
0.936	2.30771	1.37654
0.939	2.30675	1.36999
0.942	2.30552	1.36362
0.945	2.30404	1.35743
0.948	2.30231	1.35143
0.951	2.30036	1.34562
0.954	2.29820	1.33999
0.957	2.29583	1.33457
0.960	2.29327	1.32933
0.963	2.29053	1.32430
0.966	2.28763	1.31946
0.969	2.28456	1.31481
0.972	2.28135	1.31036
0.975	2.27799	1.30611
0.978	2.27451	1.30205
0.981	2.27091	1.29818
0.984	2.26719	1.29450
0.987	2.26337	1.29101
0.990	2.25946	1.28770
0.993	2.25545	1.28457
0.996	2.25136	1.28163
0.999	2.24719	1.27886
1.010	2.23134	1.27020
1.025	2.20865	1.26191
1.040	2.18518	1.25737
1.055	2.16131	1.25623
1.070	2.13733	1.25815
1.085	2.11345	1.26286
1.100	2.08984	1.27009
1.115	2.06660	1.27962
1.130	2.04385	1.29124
1.145	2.02164	1.30479
1.160	2.00005	1.32010
1.175	1.97911	1.33703
1.190	1.95886	1.35547
1.205	1.93935	1.37529
1.220	1.92059	1.39638
1.235	1.90261	1.41866
1.250	1.88543	1.44202
1.265	1.86906	1.46638
1.280	1.85352	1.49166
1.295	1.83882	1.51779
1.310	1.82496	1.54467
1.325	1.81194	1.57226
1.340	1.79977	1.60047
1.355	1.78844	1.62924
1.370	1.77795	1.65852
1.385	1.76828	1.68824
1.400	1.75943	1.71835
1.415	1.75138	1.74879
1.430	1.74412	1.77953
1.445	1.73763	1.81051
1.460	1.73190	1.84170
1.475	1.72690	1.87305
1.490	1.72262	1.90452
1.505	1.71903	1.93609
1.520	1.71612	1.96773
1.535	1.71385	1.99939
1.550	1.71222	2.03107
1.565	1.71120	2.06273
1.580	1.71077	2.09435
1.595	1.71090	2.12592
1.610	1.71157	2.15742
1.625	1.71278	2.18883
1.640	1.71448	2.22014
1.655	1.71668	2.25133
1.670	1.71934	2.28239
1.685	1.72245	2.31332
1.700	1.72598	2.34411
1.715	1.72993	2.37474
1.730	1.73428	2.40521
1.745	1.73901	2.43552
1.760	1.74411	2.46566
1.775	1.74955	2.49562
1.790	1.75533	2.52541
1.805	1.76143	2.55501
1.820	1.76784	2.58443
1.835	1.77455	2.61366
1.850	1.78155	2.64271
1.865	1.78881	2.67156
1.880	1.79634	2.70023
1.895	1.80412	2.72870
1.910	1.81214	2.75699
1.925	1.82040	2.78508
1.940	1.82888	2.81298
1.955	1.83757	2.84069
1.970	1.84646	2.86821
1.985	1.85556	2.89554
2.000	1.86484	2.92268
2.030	1.88395	2.97639
2.060	1.90373	3.02936
2.090	1.92413	3.08160
2.120	1.94510	3.13311
2.150	1.96660	3.18391
2.180	1.98859	3.23401
2.210	2.01104	3.28341
2.240	2.03391	3.33215
2.270	2.05716	3.38021
2.300	2.08077	3.42763
2.330	2.10471	3.47441
2.360	2.12895	3.52057
2.390	2.15348	3.56611
2.420	2.17827	3.61106
2.450	2.20330	3.65541
2.480	2.22855	3.69919
2.510	2.25400	3.74241
2.540	2.27963	3.78507
2.570	2.30544	3.82719
2.600	2.33141	3.86879
2.630	2.35751	3.90986
2.660	2.38375	3.95043
2.690	2.41011	3.99050
2.720	2.43657	4.03008
2.750	2.46313	4.06918
2.780	2.48977	4.10781
2.810	2.51650	4.14599
2.840	2.54329	4.18372
2.870	2.57014	4.22100
2.900	2.59704	4.25786
2.930	2.62399	4.29429
2.960	2.65097	4.33030
2.990	2.67799	4.36591
3.020	2.70503	4.40112
3.050	2.73209	4.43594
3.080	2.75917	4.47038
3.110	2.78625	4.50444
3.140	2.81334	4.53813
3.170	2.84042	4.57146
3.200	2.86751	4.60444
3.230	2.89458	4.63706
3.260	2.92164	4.66935
3.290	2.94868	4.70130
