Material: main / In2Se3 / Zotev
Optical constants. P. G. Zotev, Y. Wang, D. Andres-Penares, T. Severs-Millard, S. Randerson, X. Hu, L. Sortino, C. Louca, M. Brotons-Gisbert, T. Huq, S. Vezzoli, R. Sapienza, T. F. Krauss, B. D. Gerardot, A. I. Tartakovskii. Van der Waals materials for applications in nanophotonics. Laser and Photonics Rev. 17, 2200957 (2023) (Numerical data kindly provided by Panaiot Zotev)
Comments: Multilayer crystals. Isotropic. Room temperature.
wavelength (um)	n	k
0.3600	3.419	1.525
0.3632	3.433	1.500
0.3664	3.447	1.475
0.3696	3.460	1.450
0.3728	3.473	1.424
0.3760	3.484	1.399
0.3792	3.496	1.374
0.3824	3.506	1.350
0.3856	3.516	1.325
0.3888	3.525	1.300
0.3920	3.534	1.276
0.3952	3.542	1.252
0.3984	3.550	1.228
0.4016	3.557	1.204
0.4048	3.563	1.181
0.4080	3.569	1.157
0.4112	3.575	1.134
0.4144	3.580	1.111
0.4176	3.584	1.088
0.4208	3.588	1.066
0.4240	3.591	1.044
0.4272	3.594	1.022
0.4304	3.597	1.000
0.4336	3.599	0.979
0.4368	3.601	0.958
0.4400	3.602	0.937
0.4432	3.603	0.917
0.4464	3.604	0.897
0.4496	3.604	0.877
0.4528	3.604	0.857
0.4560	3.604	0.838
0.4592	3.603	0.819
0.4624	3.602	0.801
0.4656	3.601	0.782
0.4688	3.599	0.764
0.4720	3.598	0.747
0.4752	3.596	0.729
0.4784	3.593	0.712
0.4816	3.591	0.695
0.4848	3.588	0.679
0.4880	3.585	0.663
0.4912	3.582	0.647
0.4944	3.579	0.631
0.4976	3.575	0.616
0.5008	3.572	0.601
0.5040	3.568	0.586
0.5072	3.564	0.572
0.5104	3.560	0.558
0.5136	3.556	0.544
0.5168	3.552	0.530
0.5200	3.547	0.517
0.5232	3.543	0.504
0.5264	3.538	0.491
0.5296	3.533	0.478
0.5321	3.530	0.469
0.5344	3.526	0.460
0.5376	3.521	0.448
0.5408	3.516	0.437
0.5440	3.511	0.425
0.5472	3.506	0.414
0.5504	3.501	0.403
0.5536	3.496	0.392
0.5568	3.490	0.382
0.5600	3.485	0.371
0.5632	3.479	0.361
0.5664	3.474	0.352
0.5696	3.468	0.342
0.5728	3.463	0.332
0.5760	3.458	0.323
0.5792	3.452	0.314
0.5824	3.446	0.305
0.5856	3.441	0.297
0.5888	3.435	0.288
0.5920	3.429	0.280
0.5952	3.424	0.272
0.5984	3.418	0.264
0.6016	3.413	0.256
0.6048	3.407	0.249
0.6080	3.401	0.241
0.6112	3.395	0.234
0.6144	3.390	0.227
0.6176	3.384	0.220
0.6208	3.378	0.213
0.6240	3.373	0.207
0.6272	3.367	0.200
0.6304	3.362	0.194
0.6336	3.356	0.188
0.6368	3.350	0.182
0.6400	3.345	0.176
0.6432	3.339	0.170
0.6464	3.334	0.165
0.6496	3.328	0.159
0.6528	3.322	0.154
0.6560	3.317	0.149
0.6592	3.311	0.144
0.6624	3.306	0.139
0.6656	3.300	0.134
0.6688	3.295	0.130
0.6720	3.289	0.125
0.6752	3.284	0.121
0.6784	3.279	0.116
0.6816	3.273	0.112
0.6848	3.268	0.108
0.6880	3.263	0.104
0.6912	3.258	0.100
0.6944	3.252	0.097
0.6976	3.247	0.093
0.7008	3.242	0.089
0.7040	3.237	0.086
0.7072	3.232	0.083
0.7104	3.227	0.079
0.7136	3.221	0.076
0.7168	3.216	0.073
0.7200	3.212	0.070
0.7232	3.207	0.067
0.7264	3.202	0.065
0.7296	3.197	0.062
0.7328	3.192	0.059
0.7360	3.187	0.057
0.7392	3.182	0.055
0.7424	3.178	0.052
0.7456	3.173	0.050
0.7488	3.168	0.048
0.7520	3.164	0.046
0.7552	3.159	0.044
0.7584	3.155	0.042
0.7616	3.150	0.040
0.7648	3.146	0.038
0.7680	3.141	0.037
0.7712	3.137	0.035
0.7744	3.132	0.034
0.7776	3.128	0.032
0.7808	3.124	0.031
0.7840	3.120	0.030
0.7872	3.116	0.028
0.7904	3.112	0.027
0.7936	3.107	0.026
0.7968	3.103	0.025
0.8000	3.099	0.024
0.8032	3.096	0.023
0.8064	3.092	0.023
0.8096	3.088	0.022
0.8128	3.084	0.021
0.8160	3.081	0.021
0.8192	3.077	0.020
0.8224	3.073	0.020
0.8256	3.070	0.019
0.8288	3.066	0.019
0.8320	3.063	0.019
0.8352	3.060	0.018
0.8384	3.057	0.018
0.8416	3.054	0.018
0.8448	3.051	0.018
0.8480	3.048	0.018
0.8512	3.045	0.018
0.8544	3.042	0.018
0.8576	3.039	0.018
0.8608	3.036	0.018
0.8640	3.034	0.018
0.8672	3.031	0.018
0.8704	3.028	0.018
0.8736	3.026	0.018
0.8768	3.024	0.018
0.8800	3.021	0.018
0.8832	3.019	0.018
0.8864	3.017	0.018
0.8896	3.015	0.018
0.8928	3.013	0.018
0.8960	3.011	0.018
0.8992	3.009	0.018
0.9024	3.006	0.018
0.9056	3.004	0.018
0.9088	3.002	0.018
0.9120	3.000	0.018
0.9152	2.998	0.018
0.9184	2.997	0.018
0.9216	2.995	0.018
0.9248	2.993	0.018
0.9280	2.991	0.018
0.9312	2.990	0.018
0.9344	2.988	0.018
0.9376	2.986	0.018
0.9408	2.985	0.018
0.9440	2.983	0.018
0.9472	2.981	0.018
0.9504	2.980	0.018
0.9536	2.978	0.018
0.9568	2.976	0.018
0.9600	2.975	0.018
0.9632	2.973	0.018
0.9664	2.972	0.019
0.9696	2.970	0.019
0.9728	2.969	0.019
0.9760	2.968	0.019
0.9792	2.966	0.019
0.9824	2.965	0.019
0.9856	2.964	0.019
0.9888	2.962	0.019
0.9920	2.961	0.019
0.9952	2.960	0.019
0.9984	2.958	0.019
