Material: mixed crystals / In2O3-SnO2 / Konig
Optical constants. T. A. F. König, P. A. Ledin, J. Kerszulis, M. A. Mahmoud, M. A. El-Sayed, J. R. Reynolds, V. V. Tsukruk. Electrically tunable plasmonic behavior of nanocube-polymer nanomaterials induced by a redox-active electrochromic polymer. ACS Nano 8, 6182-6192 (2014) (Numerical data kindly provided by Tobias König)
Comments: 72 nm ITO film on BK7 glass substrate. Purchased from Delta Technology (CG-60IN-CUV), 15–25 ohms. ITO includes a separate roughness layer (see \with EMA")"
Conditions: {"film_thickness": "72e-9", "substrate": "glass"}
wavelength (um)	n	k
0.25157	2.31717213	0.57780161
0.25475	2.34626565	0.56007881
0.25793	2.37467908	0.53614073
0.26112	2.40048438	0.50618770
0.26430	2.42192779	0.47112495
0.26748	2.43772396	0.43242053
0.27067	2.44723468	0.39183166
0.27385	2.45048120	0.35109896
0.27703	2.44801587	0.31170070
0.28022	2.44072204	0.27472102
0.28340	2.42961505	0.24082882
0.28658	2.41568999	0.21033313
0.28977	2.39983020	0.18327257
0.29295	2.38276689	0.15950523
0.29614	2.36507480	0.13878487
0.29932	2.34718664	0.12081606
0.30250	2.32941721	0.10529233
0.30569	2.31198686	0.09191767
0.30887	2.29504418	0.08041911
0.31205	2.27868456	0.07055199
0.31524	2.26296411	0.06210060
0.31842	2.24791192	0.05487750
0.32161	2.23353796	0.04872078
0.32479	2.21984006	0.04349141
0.32797	2.20680801	0.03907008
0.33116	2.19442784	0.03535462
0.33434	2.18268445	0.03225743
0.33752	2.17156519	0.02970331
0.34071	2.16106461	0.02762754
0.34389	2.15119877	0.02597410
0.34708	2.14204552	0.02460068
0.35026	2.13345877	0.02331379
0.35344	2.12531947	0.02210520
0.35663	2.11756330	0.02097030
0.35981	2.11014433	0.01990462
0.36299	2.10302647	0.01890381
0.36618	2.09618057	0.01796376
0.36936	2.08958211	0.01708062
0.37254	2.08321014	0.01625075
0.37573	2.07704647	0.01547072
0.37891	2.07107518	0.01473735
0.38210	2.06528218	0.01404766
0.38528	2.05965483	0.01339886
0.38846	2.05418175	0.01278834
0.39164	2.04885270	0.01221369
0.39483	2.04365836	0.01167263
0.39801	2.03859023	0.01116305
0.40119	2.03364043	0.01068299
0.40438	2.02880188	0.01023061
0.40756	2.02406784	0.00980420
0.41074	2.01943226	0.00940216
0.41393	2.01488934	0.00902299
0.41711	2.01043395	0.00866533
0.42029	2.00606101	0.00832786
0.42347	2.00176598	0.00800938
0.42665	1.99754454	0.00770876
0.42984	1.99339266	0.00742495
0.43302	1.98930647	0.00715695
0.43620	1.98528254	0.00690385
0.43938	1.98131737	0.00666480
0.44257	1.97740793	0.00643898
0.44575	1.97355117	0.00622565
0.44893	1.96974428	0.00602411
0.45211	1.96598463	0.00583369
0.45529	1.96226965	0.00565378
0.45847	1.95859694	0.00548381
0.46165	1.95496423	0.00532322
0.46484	1.95136949	0.00517153
0.46802	1.94781049	0.00502825
0.47120	1.94428546	0.00489295
0.47438	1.94079243	0.00476519
0.47756	1.93732964	0.00464460
0.48074	1.93389551	0.00453080
0.48392	1.93048833	0.00442345
0.48710	1.92710663	0.00432223
0.49028	1.92374899	0.00422683
0.49346	1.92041391	0.00413697
0.49664	1.91710012	0.00405237
0.49982	1.91380632	0.00397279
0.50300	1.91053135	0.00389798
0.50618	1.90727398	0.00382773
0.50936	1.90403310	0.00376182
0.51253	1.90080761	0.00370005
0.51571	1.89759653	0.00364224
0.51889	1.89439883	0.00358821
0.52207	1.89121359	0.00353779
0.52525	1.88803986	0.00349084
0.52843	1.88487678	0.00344719
0.53160	1.88172353	0.00340672
0.53478	1.87857922	0.00336929
0.53796	1.87544312	0.00333477
0.54114	1.87231447	0.00330305
0.54431	1.86919254	0.00327403
0.54749	1.86607663	0.00324759
0.55067	1.86296604	0.00322363
0.55384	1.85986012	0.00320207
0.55702	1.85675824	0.00318282
0.56020	1.85365978	0.00316579
0.56337	1.85056420	0.00315090
0.56655	1.84747086	0.00313808
0.56972	1.84437921	0.00312727
0.57290	1.84128872	0.00311838
0.57607	1.83819890	0.00311137
0.57925	1.83510926	0.00310617
0.58242	1.83201924	0.00310273
0.58560	1.82892843	0.00310099
0.58877	1.82583630	0.00310090
0.59195	1.82274246	0.00310242
0.59512	1.81964647	0.00310550
0.59829	1.81654791	0.00311010
0.60147	1.81344635	0.00311617
0.60464	1.81034139	0.00312369
0.60781	1.80723261	0.00313260
0.61098	1.80411970	0.00314289
0.61416	1.80100225	0.00315452
0.61733	1.79787989	0.00316746
0.62050	1.79475232	0.00318168
0.62367	1.79161909	0.00319715
0.62684	1.78847996	0.00321385
0.63001	1.78533461	0.00323175
0.63318	1.78218266	0.00325083
0.63635	1.77902379	0.00327107
0.63952	1.77585774	0.00329246
0.64269	1.77268421	0.00331496
0.64586	1.76950285	0.00333857
0.64903	1.76631342	0.00336327
0.65220	1.76311564	0.00338903
0.65537	1.75990922	0.00341586
0.65854	1.75669389	0.00344372
0.66171	1.75346933	0.00347262
0.66488	1.75023537	0.00350254
0.66804	1.74699171	0.00353346
0.67121	1.74373807	0.00356539
0.67438	1.74047422	0.00359830
0.67754	1.73719990	0.00363219
0.68071	1.73391492	0.00366705
0.68388	1.73061898	0.00370288
0.68704	1.72731184	0.00373966
0.69021	1.72399333	0.00377740
0.69337	1.72066320	0.00381608
0.69654	1.71732118	0.00385571
0.69970	1.71396708	0.00389627
0.70287	1.71060065	0.00393776
0.70603	1.70722169	0.00398019
0.70919	1.70383000	0.00402354
0.71236	1.70042535	0.00406782
0.71552	1.69700752	0.00411302
0.71868	1.69357632	0.00415914
0.72184	1.69013145	0.00420619
0.72500	1.68667284	0.00425416
0.72817	1.68320020	0.00430304
0.73133	1.67971339	0.00435285
0.73449	1.67621209	0.00440358
0.73765	1.67269620	0.00445524
0.74081	1.66916546	0.00450782
0.74397	1.66561973	0.00456132
0.74713	1.66205875	0.00461576
0.75029	1.65848237	0.00467113
0.75344	1.65489032	0.00472743
0.75660	1.65128248	0.00478468
0.75976	1.64765857	0.00484287
0.76292	1.64401852	0.00490200
0.76607	1.64036200	0.00496209
0.76923	1.63668888	0.00502313
0.77239	1.63299896	0.00508513
0.77554	1.62929203	0.00514810
0.77870	1.62556789	0.00521204
0.78185	1.62182635	0.00527697
0.78501	1.61806727	0.00534287
0.78816	1.61429032	0.00540978
0.79132	1.61049542	0.00547768
0.79447	1.60668231	0.00554658
0.79762	1.60285079	0.00561651
0.80077	1.59900072	0.00568745
0.80393	1.59513188	0.00575942
0.80708	1.59124402	0.00583244
0.81023	1.58733694	0.00590651
0.81338	1.58341053	0.00598163
0.81653	1.57946449	0.00605782
0.81968	1.57549865	0.00613509
0.82283	1.57151268	0.00621345
0.82598	1.56750669	0.00629291
0.82913	1.56348008	0.00637348
0.83228	1.55943302	0.00645516
0.83543	1.55536492	0.00653799
0.83857	1.55127592	0.00662196
0.84172	1.54716545	0.00670709
0.84487	1.54303365	0.00679338
0.84801	1.53888004	0.00688087
0.85116	1.53470454	0.00696955
0.85430	1.53050677	0.00705944
0.85745	1.52628665	0.00715056
0.86059	1.52204394	0.00724292
0.86374	1.51777841	0.00733654
0.86688	1.51348981	0.00743143
0.87002	1.50917778	0.00752761
0.87316	1.50484221	0.00762509
0.87631	1.50048286	0.00772389
0.87945	1.49609946	0.00782404
0.88259	1.49169178	0.00792554
0.88573	1.48725957	0.00802841
0.88887	1.48280255	0.00813268
0.89201	1.47832047	0.00823836
0.89515	1.47381308	0.00834548
0.89829	1.46928009	0.00845404
0.90142	1.46472124	0.00856409
0.90456	1.46013639	0.00867563
0.90770	1.45552498	0.00878868
0.91083	1.45088702	0.00890328
0.91397	1.44622207	0.00901944
0.91711	1.44152984	0.00913719
0.92024	1.43681018	0.00925655
0.92338	1.43206263	0.00937755
0.92651	1.42728691	0.00950022
0.92964	1.42248269	0.00962457
0.93278	1.41764980	0.00975064
0.93591	1.41278793	0.00987846
0.93904	1.40789645	0.01000805
0.94217	1.40297548	0.01013945
0.94530	1.39802422	0.01027268
0.94843	1.39304279	0.01040777
0.95156	1.38803054	0.01054477
0.95469	1.38298710	0.01068370
0.95782	1.37791226	0.01082460
0.96095	1.37280567	0.01096749
0.96407	1.36766677	0.01111243
0.96720	1.36249535	0.01125944
0.97033	1.35729102	0.01140856
0.97345	1.35205337	0.01155983
0.97658	1.34678183	0.01171331
0.97970	1.34147616	0.01186901
0.98283	1.33613592	0.01202700
0.98595	1.33076069	0.01218731
0.98907	1.32535001	0.01234999
0.99220	1.31990345	0.01251508
0.99532	1.31442054	0.01268264
0.99844	1.30890062	0.01285273
