Material: mixed crystals / In2O3-SnO2 / Konig-EMA
Optical constants. T. A. F. König, P. A. Ledin, J. Kerszulis, M. A. Mahmoud, M. A. El-Sayed, J. R. Reynolds, V. V. Tsukruk. Electrically tunable plasmonic behavior of nanocube-polymer nanomaterials induced by a redox-active electrochromic polymer. ACS Nano 8, 6182-6192 (2014) (Numerical data kindly provided by Tobias König)
Comments: Optical constants of 2 nm roughness layer (effective medium approximation, EMA layer). Setup: BK7+ITO(72nm)+EMA(2nm)). ITO purchased from Delta Technology (CG-60IN-CUV), 15–25 ohms.
Conditions: {"film_thickness": "2e-9", "substrate": "glass/ITO"}
wavelength (um)	n	k
0.25157	1.61929943	0.26157101
0.25475	1.63233784	0.25346920
0.25793	1.64505646	0.24257839
0.26112	1.65659248	0.22899166
0.26430	1.66616140	0.21311655
0.26748	1.67318804	0.19561209
0.27067	1.67738674	0.17726690
0.27385	1.67876731	0.15886256
0.27703	1.67757803	0.14106332
0.28022	1.67421606	0.12435663
0.28340	1.66913816	0.10904345
0.28658	1.66279216	0.09526284
0.28977	1.65557575	0.08303219
0.29295	1.64781820	0.07228758
0.29614	1.63977838	0.06291807
0.29932	1.63165120	0.05479057
0.30250	1.62357851	0.04776697
0.30569	1.61565960	0.04171388
0.30887	1.60796146	0.03650827
0.31205	1.60052711	0.03203988
0.31524	1.59338187	0.02821144
0.31842	1.58653892	0.02493845
0.32161	1.58000279	0.02214790
0.32479	1.57377256	0.01977707
0.32797	1.56784369	0.01777213
0.33116	1.56220994	0.01608698
0.33434	1.55686461	0.01468208
0.33752	1.55180207	0.01352346
0.34071	1.54702001	0.01258189
0.34389	1.54252591	0.01183205
0.34708	1.53835540	0.01120924
0.35026	1.53444205	0.01062542
0.35344	1.53073176	0.01007693
0.35663	1.52719532	0.00956172
0.35981	1.52381191	0.00907779
0.36299	1.52056512	0.00862318
0.36618	1.51744175	0.00819606
0.36936	1.51443067	0.00779469
0.37254	1.51152238	0.00741744
0.37573	1.50870861	0.00706277
0.37891	1.50598217	0.00672924
0.38210	1.50333664	0.00641551
0.38528	1.50076630	0.00612032
0.38846	1.49826598	0.00584249
0.39164	1.49583103	0.00558094
0.39483	1.49345722	0.00533463
0.39801	1.49114070	0.00510261
0.40119	1.48887789	0.00488400
0.40438	1.48666557	0.00467796
0.40756	1.48450069	0.00448371
0.41074	1.48238049	0.00430055
0.41393	1.48030234	0.00412778
0.41711	1.47826391	0.00396478
0.42029	1.47626289	0.00381097
0.42347	1.47429723	0.00366579
0.42665	1.47236494	0.00352874
0.42984	1.47046421	0.00339934
0.43302	1.46859327	0.00327714
0.43620	1.46675056	0.00316172
0.43938	1.46493449	0.00305269
0.44257	1.46314369	0.00294970
0.44575	1.46137676	0.00285239
0.44893	1.45963242	0.00276045
0.45211	1.45790948	0.00267358
0.45529	1.45620676	0.00259150
0.45847	1.45452318	0.00251395
0.46165	1.45285771	0.00244068
0.46484	1.45120940	0.00237147
0.46802	1.44957725	0.00230609
0.47120	1.44796046	0.00224435
0.47438	1.44635811	0.00218606
0.47756	1.44476942	0.00213103
0.48074	1.44319365	0.00207911
0.48392	1.44163004	0.00203013
0.48710	1.44007790	0.00198395
0.49028	1.43853659	0.00194043
0.49346	1.43700543	0.00189944
0.49664	1.43548383	0.00186086
0.49982	1.43397120	0.00182457
0.50300	1.43246700	0.00179046
0.50618	1.43097069	0.00175843
0.50936	1.42948174	0.00172840
0.51253	1.42799965	0.00170025
0.51571	1.42652399	0.00167392
0.51889	1.42505427	0.00164932
0.52207	1.42359007	0.00162637
0.52525	1.42213096	0.00160501
0.52843	1.42067654	0.00158516
0.53160	1.41922644	0.00156677
0.53478	1.41778024	0.00154978
0.53796	1.41633763	0.00153412
0.54114	1.41489823	0.00151974
0.54431	1.41346172	0.00150660
0.54749	1.41202778	0.00149464
0.55067	1.41059608	0.00148383
0.55384	1.40916633	0.00147412
0.55702	1.40773823	0.00146547
0.56020	1.40631150	0.00145783
0.56337	1.40488589	0.00145119
0.56655	1.40346111	0.00144550
0.56972	1.40203689	0.00144073
0.57290	1.40061300	0.00143685
0.57607	1.39918921	0.00143383
0.57925	1.39776529	0.00143165
0.58242	1.39634099	0.00143027
0.58560	1.39491610	0.00142969
0.58877	1.39349040	0.00142986
0.59195	1.39206368	0.00143078
0.59512	1.39063576	0.00143242
0.59829	1.38920643	0.00143476
0.60147	1.38777550	0.00143778
0.60464	1.38634278	0.00144148
0.60781	1.38490807	0.00144582
0.61098	1.38347123	0.00145080
0.61416	1.38203207	0.00145640
0.61733	1.38059041	0.00146260
0.62050	1.37914611	0.00146940
0.62367	1.37769896	0.00147679
0.62684	1.37624886	0.00148474
0.63001	1.37479564	0.00149326
0.63318	1.37333913	0.00150233
0.63635	1.37187919	0.00151193
0.63952	1.37041568	0.00152207
0.64269	1.36894846	0.00153274
0.64586	1.36747738	0.00154392
0.64903	1.36600231	0.00155560
0.65220	1.36452312	0.00156779
0.65537	1.36303968	0.00158048
0.65854	1.36155186	0.00159365
0.66171	1.36005950	0.00160731
0.66488	1.35856252	0.00162145
0.66804	1.35706078	0.00163606
0.67121	1.35555416	0.00165114
0.67438	1.35404253	0.00166669
0.67754	1.35252576	0.00168270
0.68071	1.35100378	0.00169917
0.68388	1.34947643	0.00171609
0.68704	1.34794361	0.00173347
0.69021	1.34640522	0.00175129
0.69337	1.34486115	0.00176957
0.69654	1.34331126	0.00178829
0.69970	1.34175547	0.00180746
0.70287	1.34019364	0.00182707
0.70603	1.33862570	0.00184713
0.70919	1.33705153	0.00186762
0.71236	1.33547102	0.00188856
0.71552	1.33388408	0.00190994
0.71868	1.33229059	0.00193176
0.72184	1.33069042	0.00195402
0.72500	1.32908353	0.00197672
0.72817	1.32746978	0.00199987
0.73133	1.32584909	0.00202345
0.73449	1.32422132	0.00204748
0.73765	1.32258640	0.00207195
0.74081	1.32094422	0.00209687
0.74397	1.31929470	0.00212224
0.74713	1.31763771	0.00214805
0.75029	1.31597317	0.00217432
0.75344	1.31430097	0.00220104
0.75660	1.31262101	0.00222821
0.75976	1.31093318	0.00225584
0.76292	1.30923743	0.00228393
0.76607	1.30753360	0.00231248
0.76923	1.30582162	0.00234150
0.77239	1.30410138	0.00237098
0.77554	1.30237280	0.00240094
0.77870	1.30063575	0.00243137
0.78185	1.29889015	0.00246228
0.78501	1.29713592	0.00249367
0.78816	1.29537289	0.00252555
0.79132	1.29360103	0.00255792
0.79447	1.29182019	0.00259078
0.79762	1.29003029	0.00262414
0.80077	1.28823123	0.00265801
0.80393	1.28642291	0.00269238
0.80708	1.28460520	0.00272727
0.81023	1.28277800	0.00276267
0.81338	1.28094125	0.00279860
0.81653	1.27909478	0.00283505
0.81968	1.27723852	0.00287205
0.82283	1.27537231	0.00290958
0.82598	1.27349616	0.00294765
0.82913	1.27160980	0.00298628
0.83228	1.26971329	0.00302547
0.83543	1.26780634	0.00306523
0.83857	1.26588901	0.00310555
0.84172	1.26396101	0.00314646
0.84487	1.26202240	0.00318795
0.84801	1.26007294	0.00323004
0.85116	1.25811257	0.00327272
0.85430	1.25614112	0.00331602
0.85745	1.25415851	0.00335993
0.86059	1.25216462	0.00340447
0.86374	1.25015934	0.00344964
0.86688	1.24814253	0.00349546
0.87002	1.24611400	0.00354192
0.87316	1.24407368	0.00358905
0.87631	1.24202145	0.00363685
0.87945	1.23995717	0.00368533
0.88259	1.23788069	0.00373449
0.88573	1.23579190	0.00378436
0.88887	1.23369064	0.00383494
0.89201	1.23157677	0.00388624
0.89515	1.22945015	0.00393827
0.89829	1.22731064	0.00399105
0.90142	1.22515809	0.00404459
0.90456	1.22299241	0.00409889
0.90770	1.22081331	0.00415397
0.91083	1.21862078	0.00420985
0.91397	1.21641459	0.00426653
0.91711	1.21419458	0.00432404
0.92024	1.21196065	0.00438238
0.92338	1.20971258	0.00444156
0.92651	1.20745018	0.00450161
0.92964	1.20517330	0.00456254
0.93278	1.20288181	0.00462437
0.93591	1.20057556	0.00468710
0.93904	1.19825420	0.00475076
0.94217	1.19591778	0.00481536
0.94530	1.19356588	0.00488093
0.94843	1.19119853	0.00494747
0.95156	1.18881540	0.00501501
0.95469	1.18641627	0.00508357
0.95782	1.18400103	0.00515316
0.96095	1.18156946	0.00522381
0.96407	1.17912127	0.00529554
0.96720	1.17665633	0.00536837
0.97033	1.17417441	0.00544232
0.97345	1.17167529	0.00551741
0.97658	1.16915866	0.00559367
0.97970	1.16662436	0.00567113
0.98283	1.16407215	0.00574980
0.98595	1.16150178	0.00582972
0.98907	1.15891301	0.00591090
0.99220	1.15630557	0.00599338
0.99532	1.15367920	0.00607719
0.99844	1.15103355	0.00616236
