Material: main / SiO2 / Franta
Optical constants. D. Franta, D. Nečas, I. Ohlídal. A. Giglia. Optical characterization of SiO2 thin films using universal dispersion model over wide spectral range. Proc. SPIE 9890, 989014 (2016) (Numerical data kindly provided by Daniel Franta)
Comments: Fused silica SiO2 plate; Thickness 0.405 mm; Heterogenous data processing combining ellipsometric and spectrophotometric measurements with tabulated refractive index data (SCHOTT Lithosil Q2 product sheet) and Palik's tabulated data in EUV (only the spectral distribution of the imaginary part of the susceptibility and not the absolute value was fitted); Room temperature.
wavelength (um)	n	k
0.024797	0.93894898518	0.066160890781
0.0253746	0.937584276115	0.068589243681
0.0259657	0.936156366567	0.071010071637
0.0265705	0.934643821702	0.0734117429995
0.0271894	0.933018851132	0.0757817848994
0.0278227	0.931245123982	0.0781070482777
0.0284708	0.929274323793	0.0803740110456
0.029134	0.927040154391	0.082569353601
0.0298126	0.924446195478	0.0846811790586
0.030507	0.921333149803	0.0867027656488
0.0312176	0.917320776837	0.0887089625308
0.0319448	0.912267843471	0.0915832379252
0.0326889	0.906899947567	0.095470986145
0.0334503	0.901461067924	0.100223654147
0.0342294	0.89607239137	0.10570696323
0.0350268	0.890778328868	0.111806224707
0.0358426	0.885573724035	0.118435805585
0.0366775	0.880423018993	0.125543461235
0.0375318	0.875274350117	0.133110923934
0.0384061	0.870069816603	0.141152756579
0.0393007	0.864753264255	0.149714928988
0.0402161	0.859276975842	0.158873760292
0.0411528	0.85360848958	0.168735175345
0.0421114	0.847738485122	0.17943369706
0.0430923	0.841690331256	0.191130165059
0.0440961	0.835531428997	0.204006764802
0.0451232	0.829385779431	0.218257583264
0.0461743	0.823446103989	0.234072735001
0.0472498	0.817982274272	0.251614489424
0.0483504	0.813340987499	0.270985346215
0.0494766	0.809930354195	0.292191223805
0.0506291	0.808183895704	0.31510783998
0.0518084	0.808503221976	0.339463528001
0.0530151	0.811188079145	0.364853876875
0.05425	0.816374456036	0.390798885088
0.0555137	0.824011745443	0.416840113663
0.0568067	0.833917776256	0.442654654956
0.0581299	0.845984250537	0.468123590762
0.059484	0.86056512521	0.492585821305
0.0608695	0.876020647022	0.515163516399
0.0622874	0.891264569791	0.537186642666
0.0637382	0.906357112197	0.560179871683
0.0652229	0.922363565599	0.5856239555
0.0667421	0.941520048124	0.614449346888
0.0682967	0.967156414539	0.646135468366
0.0698876	1.00282426232	0.677503763473
0.0715154	1.04996304491	0.70202814526
0.0731813	1.10448759812	0.711635544086
0.0748859	1.15563785837	0.702309243227
0.0766302	1.19126272297	0.679532148502
0.0784151	1.20623947741	0.656397100963
0.0802417	1.2052473072	0.645946883427
0.0821107	1.19964172369	0.655806775145
0.0840233	1.20413678359	0.68597035139
0.0859805	1.23284550227	0.72571939978
0.0879832	1.28880482657	0.75263042377
0.0900326	1.35159860147	0.747123467226
0.0921297	1.39022618505	0.718603884055
0.0942757	1.39906609191	0.699496722283
0.0964717	1.40183090267	0.708067314929
0.0987188	1.42019549415	0.734621070631
0.101018	1.45507900429	0.768696460413
0.103371	1.52107737972	0.807751859998
0.105779	1.62129390559	0.821128922625
0.108243	1.72660380494	0.771756137594
0.110764	1.83074206824	0.670188874466
0.113344	1.71291886829	0.525599836593
0.115984	1.54895645176	0.699298916104
0.118686	1.90082536928	1.08277288105
0.121451	2.3733882686	0.676811904368
0.12428	2.28991006276	0.279317829408
0.127174	2.12542660867	0.126239442166
0.130137	2.00636647691	0.0660649580605
0.133168	1.92178028361	0.0373171943777
0.13627	1.8584930116	0.0214414063003
0.139444	1.80885942852	0.011909621977
0.142692	1.7685383322	0.00604521181103
0.146016	1.73499277189	0.00261932548176
0.149417	1.70680958397	0.00100149125769
0.152897	1.68319995564	0.000391623587575
0.156459	1.66314477768	0.00015635865884
0.160103	1.64583188946	6.37329906367e-05
0.163832	1.63068432446	2.65160188811e-05
0.167649	1.61728799658	1.12573272997e-05
0.171554	1.60533747235	4.87536301282e-06
0.17555	1.59460092641	2.15314418258e-06
0.179639	1.58489787086	9.69340726688e-07
0.183823	1.57608473594	4.4468830946e-07
0.188105	1.5680452546	2.07800983839e-07
0.192486	1.56068384757	9.88753753036e-08
0.19697	1.55392093808	4.78865327961e-08
0.201558	1.54768954653	2.35971534818e-08
0.206253	1.54193275954	1.18266812545e-08
0.211057	1.5366018121	6.02639666793e-09
0.215973	1.53165461021	3.12085815825e-09
0.221004	1.52705457601	1.64184257651e-09
0.226152	1.52276973364	8.77059463359e-10
0.231419	1.51877197741	4.75472968424e-10
0.23681	1.51503647998	2.61401594285e-10
0.242326	1.51154120949	1.45590038121e-10
0.24797	1.5082665322	8.2019931952e-11
0.253746	1.50519488322	4.66212837297e-11
0.259657	1.50231049151	2.66259016693e-11
0.265705	1.49959914902	1.51669644671e-11
0.271894	1.49704801553	8.50144891458e-12
0.278227	1.49464545284	4.56206624214e-12
0.284708	1.49238088319	2.19225721067e-12
0.29134	1.49024466776	7.36774250528e-13
0.298126	1.48822800189	0
0.30507	1.48632282447	0
0.312176	1.48452173907	0
0.319448	1.48281794521	0
0.326889	1.4812051782	0
0.334503	1.47967765617	0
0.342294	1.47823003354	0
0.350268	1.47685735972	0
0.358426	1.47555504265	0
0.366775	1.47431881622	0
0.375318	1.47314471133	0
0.384061	1.47202903	0
0.393007	1.47096832209	0
0.402161	1.4699593645	0
0.411528	1.46899914235	0
0.421114	1.46808483205	0
0.430923	1.46721378593	0
0.440961	1.46638351839	0
0.451232	1.46559169322	0
0.461743	1.46483611217	0
0.472498	1.4641147044	0
0.483504	1.46342551696	0
0.494766	1.46276670601	0
0.506291	1.46213652877	0
0.518084	1.46153333612	0
0.530151	1.46095556583	0
0.5425	1.46040173626	0
0.555137	1.45987044057	0
0.568067	1.45936034135	0
0.581299	1.45887016562	0
0.59484	1.45839870026	0
0.608695	1.45794478762	3.47839237462e-311
0.622874	1.45750732155	3.73365732971e-294
0.637382	1.45708524364	5.52956828306e-278
0.652229	1.45667753968	1.24135774165e-262
0.667421	1.45628323635	4.6207526515e-248
0.682967	1.4559013981	3.10669496551e-234
0.698876	1.45553112427	4.09351033693e-221
0.715154	1.45517154622	1.14262939103e-208
0.731813	1.45482182479	7.27716780802e-197
0.748859	1.45448114773	1.135031923e-185
0.766302	1.45414872735	4.63828874443e-175
0.784151	1.45382379825	5.29622116125e-165
0.802417	1.4535056151	1.79675615113e-155
0.821107	1.45319345058	1.92018804218e-146
0.840233	1.45288659333	6.83540678232e-138
0.859805	1.45258434598	8.54785092478e-130
0.879832	1.4522860233	3.95048767106e-122
0.900326	1.45199095025	7.08186178563e-115
0.921297	1.45169846028	5.15666024247e-108
0.942757	1.45140789343	1.59367524247e-101
0.964717	1.45111859467	2.17989054275e-95
0.987188	1.45082991208	1.37345606571e-89
1.01018	1.45054119516	4.14065628049e-84
1.03371	1.45025179311	6.19372258655e-79
1.05779	1.44996105307	4.75857209541e-74
1.08243	1.44966831833	1.94067314525e-69
1.10764	1.44937292665	4.33538409758e-65
1.13344	1.44907420841	1.78671623192e-56
1.15984	1.44877148465	3.92841721428e-45
1.18686	1.44846406528	1.81181883804e-35
1.21451	1.44815124671	2.21743776629e-27
1.2428	1.44783230965	9.00210622255e-21
1.27174	1.44750651541	1.49815279499e-15
1.30137	1.44717309895	1.2494928026e-11
1.33168	1.44683123681	6.31876299828e-09
1.3627	1.44647995124	2.33187819208e-07
1.39444	1.44612012996	8.72289848145e-07
1.42692	1.44574851322	2.36197552952e-07
1.46016	1.44536477785	8.9762640403e-09
1.49417	1.4449685366	4.66902724863e-11
1.52897	1.44455875717	3.81640999597e-14
1.56459	1.44413440252	5.58714441046e-18
1.60103	1.44369442438	5.79584884828e-22
1.63832	1.44323773381	1.21922218084e-20
1.67649	1.4427631926	2.84225109993e-19
1.71554	1.44226960757	5.31378649555e-18
1.7555	1.44175572528	5.55698126934e-16
1.79639	1.44122022663	1.62518014379e-12
1.83823	1.44066171992	3.03640408932e-10
1.88105	1.44007873606	3.75029439295e-09
1.92486	1.4394697204	3.66547969518e-09
1.9697	1.43883299882	1.54799139195e-09
2.01558	1.43816679064	2.97023206041e-08
2.06253	1.43746923379	1.04512990165e-07
2.11057	1.43673806368	2.19721868386e-07
2.15973	1.43597062042	9.70485123156e-07
2.21004	1.43516736612	1.04385996906e-05
2.26152	1.43433163142	6.11201616611e-06
2.31419	1.43344452662	1.75113509101e-06
2.3681	1.432510255	8.95925189221e-07
2.42326	1.43152652131	1.80396190352e-06
2.4797	1.43048896807	3.67528461666e-06
2.53746	1.42939055203	8.4945895715e-06
2.59657	1.42822164007	1.53947885757e-05
2.65705	1.42692132248	2.93051646447e-05
2.71894	1.42572011662	0.000610517603112
2.78227	1.42484415738	0.000303917919435
2.84708	1.42338804779	6.78215557099e-05
2.9134	1.42182905166	2.03176545483e-05
2.98126	1.42022888074	1.01530898428e-05
3.0507	1.4185563339	6.63551959359e-06
3.12176	1.41679554406	5.35854109818e-06
3.19448	1.41493620743	4.49548672951e-06
3.26889	1.41296807511	3.94816333955e-06
3.34503	1.41088150022	4.07200383134e-06
3.42294	1.40866721027	5.93105439476e-06
3.50268	1.4063138431	1.0672522269e-05
3.58426	1.40381495371	1.92958915577e-05
3.66775	1.40115303382	3.12894159648e-05
3.75318	1.39833075299	4.88520260036e-05
3.84061	1.39531564457	4.92180034849e-05
3.93007	1.39208148832	5.30697817573e-05
4.02161	1.38860865055	6.47758298084e-05
4.11528	1.38488741265	9.81803199892e-05
4.21114	1.38089469366	0.000127901640653
4.30923	1.37657022371	0.000207120535253
4.40961	1.3720077869	0.000304061785819
4.51232	1.36701357914	0.000256009871521
4.61743	1.36137207719	0.00026464099888
4.72498	1.35500081909	0.000437991603942
4.83504	1.34762569565	0.00149106082469
4.94766	1.34118681236	0.00406250823948
5.06291	1.33575971533	0.0048444011818
5.18084	1.32746141914	0.00505848931676
5.30151	1.3201885465	0.00901299895661
5.425	1.31601387313	0.00783762773049
5.55137	1.30560455428	0.00507367203112
5.68067	1.29351253985	0.00467633290347
5.81299	1.28029539404	0.00502063318503
5.9484	1.26593765653	0.00645060838561
6.08695	1.25170548898	0.00839616791203
6.22874	1.23644958149	0.00796671873694
6.37382	1.2162052786	0.00653521863289
6.52229	1.19203193388	0.00708645569783
6.67421	1.16501724338	0.00833012052322
6.82967	1.13323591313	0.00931672886237
6.98876	1.09456954867	0.0105247204758
7.15154	1.04651978097	0.0122104787537
7.31813	0.984322308587	0.0147712947745
7.48859	0.899049261956	0.0203664387556
7.66302	0.772351991989	0.0371618194381
7.84151	0.564482770367	0.110332264251
8.02417	0.373762704115	0.415358716909
8.21107	0.419858860074	0.70166328627
8.40233	0.453037198302	0.899868737794
8.59805	0.425888686419	1.14116150226
8.79832	0.351572128493	1.62167685457
9.00326	0.864347081868	2.59168261585
9.21297	2.31129882181	2.62290092992
9.42757	3.1319674421	1.78276020764
9.64717	3.22689694921	0.748082723658
9.87188	2.76435755066	0.179031445867
10.1018	2.38784182028	0.0544446178563
10.3371	2.17992645672	0.0322325822169
10.5779	2.04352734204	0.0216179834645
10.8243	1.93896385561	0.0170305417197
11.0764	1.85172778904	0.0173301869298
11.3344	1.7689657383	0.0219606459494
11.5984	1.67533077064	0.0481617738007
11.8686	1.59893869108	0.138440524275
12.1451	1.62001731143	0.25426870044
12.428	1.71769841753	0.308225448873
12.7174	1.83192379702	0.239969200202
13.0137	1.80932736664	0.108445117358
13.3168	1.72701521375	0.0771844943037
13.627	1.68846855037	0.0760889688666
13.9444	1.65118675482	0.0680669370129
14.2692	1.61453261452	0.0696995697711
14.6016	1.58327334179	0.0735224748987
14.9417	1.5525917301	0.0764938811078
15.2897	1.51912665597	0.079699618875
15.6459	1.48101612736	0.0855771696738
16.0103	1.43823393781	0.0973960134545
16.3832	1.3932064515	0.117874049864
16.7649	1.35003894427	0.146927139811
17.1554	1.31142004191	0.180347392662
17.555	1.2746923584	0.211747624425
17.9639	1.23046802616	0.237419881137
18.3823	1.16464113816	0.260681848997
18.8105	1.06030844807	0.294424548752
19.2486	0.895763307651	0.368559714538
19.697	0.657007066323	0.569081292386
20.1558	0.480136228179	1.01942380336
20.6253	0.563310897021	1.66546243003
21.1057	1.14635215531	2.32131671091
21.5973	2.14811808714	2.40921707862
22.1004	2.82115784564	1.83297414762
22.6152	2.93602619613	1.25936978744
23.1419	2.90219715658	0.912287456317
23.681	2.83437195855	0.645633978473
24.2326	2.71817776827	0.454567422763
24.797	2.59722228079	0.34673308592
25.3746	2.50399762275	0.291453765579
25.9657	2.43987526734	0.257160078362
26.5705	2.39400272061	0.228600531441
27.1894	2.35737997191	0.201926756265
27.8227	2.32535775779	0.177254685148
28.4708	2.29604933696	0.155246587738
29.134	2.26884358338	0.136246515908
29.8126	2.24362270386	0.120239219383
30.507	2.22040971267	0.10696951592
31.2176	2.19922118096	0.0960594185233
31.9448	2.18001677404	0.0870950545673
32.6889	2.16269468022	0.0796829205339
33.4503	2.14710668955	0.0734806720536
34.2294	2.13307872953	0.0682090457213
35.0268	2.12042962067	0.0636513738251
35.8426	2.10898507157	0.0596461380901
36.6775	2.09858641169	0.0560766017899
37.5318	2.08909481014	0.0528601536866
38.4061	2.08039218242	0.049938828714
39.3007	2.07237998431	0.04727162621
40.2161	2.06497687612	0.044828712161
41.1528	2.05811596424	0.0425873029925
42.1114	2.05174207167	0.0405289090575
43.0923	2.04580928752	0.0386375996358
44.0961	2.04027890438	0.0368989885451
45.1232	2.03511776205	0.0352996979044
46.1743	2.03029696587	0.0338271183272
47.2498	2.02579092419	0.032469337422
48.3504	2.02157664303	0.0312151514639
49.4766	2.0176332192	0.0300541072711
50.6291	2.01394148098	0.0289765440369
51.8084	2.01048373511	0.0279736200622
53.0151	2.00724358755	0.0270373188974
54.25	2.00420581426	0.0261604349786
55.5137	2.00135626455	0.0253365417364
56.8067	1.99868178482	0.0245599463367
58.1299	1.99617015481	0.0238256353631
59.484	1.99381003097	0.0231292153515
60.8695	1.99159089397	0.0224668514272
62.2874	1.98950299854	0.0218352065711
63.7382	1.98753732479	0.0212313833532
65.2229	1.98568553076	0.0206528693675
66.7421	1.98393990621	0.0200974871133
68.2967	1.98229332787	0.0195633486818
69.8876	1.98073921624	0.0190488153223
71.5154	1.97927149448	0.0185524617561
73.1813	1.97788454927	0.018073044977
74.8859	1.97657319394	0.0176094771907
76.6302	1.97533263401	0.0171608025064
78.4151	1.97415843493	0.0167261769785
80.2417	1.97304649227	0.0163048516069
82.1107	1.97199300429	0.0158961579177
84.0233	1.97099444644	0.0154994957842
85.9805	1.97004754823	0.0151143231688
87.9832	1.96914927188	0.0147401475101
90.0326	1.96829679302	0.0143765185041
92.1297	1.96748748288	0.0140230220674
94.2757	1.96671889219	0.0136792752932
96.4717	1.9659887366	0.0133449222408
98.7188	1.96529488324	0.0130196304225
101.018	1.96463533868	0.0127030878698
103.371	1.9640082379	0.0123950006843
105.779	1.96341183428	0.0120950909871
108.243	1.96284449048	0.0118030952015
110.764	1.96230467019	0.0115187626089
113.344	1.96179093057	0.0112418541305
115.984	1.96130191543	0.0109721412966
118.686	1.96083634885	0.0107094053696
121.451	1.96039302958	0.0104534365925
124.28	1.95997082577	0.0102040335433
