Material: main / WS2 / Zotev-o
Optical constants. P. G. Zotev, Y. Wang, D. Andres-Penares, T. Severs-Millard, S. Randerson, X. Hu, L. Sortino, C. Louca, M. Brotons-Gisbert, T. Huq, S. Vezzoli, R. Sapienza, T. F. Krauss, B. D. Gerardot, A. I. Tartakovskii. Van der Waals materials for applications in nanophotonics. Laser and Photonics Rev. 17, 2200957 (2023) (Numerical data kindly provided by Panaiot Zotev)
Comments: Multilayer crystals. In-plane (ordinary ray, o). Room temperature.
wavelength (um)	n	k
0.360	2.670	0.606
0.363	2.651	0.660
0.366	2.633	0.719
0.370	2.619	0.784
0.373	2.609	0.856
0.376	2.605	0.934
0.379	2.609	1.019
0.382	2.623	1.108
0.386	2.648	1.203
0.389	2.686	1.299
0.392	2.740	1.395
0.395	2.809	1.488
0.398	2.895	1.574
0.402	2.996	1.648
0.405	3.109	1.707
0.408	3.233	1.747
0.411	3.360	1.764
0.414	3.484	1.759
0.418	3.600	1.732
0.421	3.700	1.689
0.424	3.781	1.635
0.427	3.841	1.578
0.430	3.881	1.526
0.434	3.906	1.484
0.437	3.922	1.459
0.440	3.937	1.453
0.443	3.960	1.466
0.446	4.003	1.494
0.450	4.074	1.526
0.453	4.178	1.546
0.456	4.306	1.535
0.459	4.441	1.480
0.462	4.560	1.382
0.466	4.644	1.254
0.469	4.688	1.117
0.472	4.697	0.986
0.475	4.678	0.871
0.478	4.644	0.775
0.482	4.601	0.699
0.485	4.554	0.640
0.488	4.508	0.595
0.491	4.463	0.563
0.494	4.422	0.542
0.498	4.387	0.530
0.501	4.358	0.526
0.504	4.337	0.527
0.507	4.324	0.532
0.510	4.322	0.537
0.514	4.328	0.540
0.517	4.343	0.537
0.520	4.362	0.524
0.523	4.382	0.502
0.526	4.397	0.470
0.530	4.406	0.432
0.532	4.406	0.400
0.534	4.403	0.370
0.538	4.391	0.331
0.541	4.373	0.295
0.544	4.351	0.263
0.547	4.326	0.236
0.550	4.300	0.214
0.554	4.273	0.195
0.557	4.245	0.180
0.560	4.218	0.168
0.563	4.191	0.159
0.566	4.164	0.152
0.570	4.138	0.148
0.573	4.111	0.146
0.576	4.085	0.145
0.579	4.059	0.147
0.582	4.032	0.151
0.586	4.005	0.158
0.589	3.977	0.167
0.592	3.948	0.180
0.595	3.918	0.197
0.598	3.886	0.219
0.602	3.852	0.249
0.605	3.817	0.290
0.608	3.781	0.346
0.611	3.749	0.423
0.614	3.730	0.530
0.618	3.745	0.676
0.621	3.835	0.855
0.624	4.048	1.011
0.627	4.361	1.027
0.630	4.626	0.849
0.634	4.730	0.593
0.637	4.711	0.384
0.640	4.644	0.246
0.643	4.571	0.159
0.646	4.504	0.105
0.650	4.447	0.070
0.653	4.398	0.048
0.656	4.357	0.032
0.659	4.322	0.022
0.662	4.291	0.015
0.666	4.265	0.010
0.669	4.242	0.006
0.672	4.221	0.004
0.675	4.203	0.002
0.678	4.187	0.001
0.682	4.172	0.001
0.685	4.158	0
0.688	4.146	7.339E-05
0.691	4.135	4.683E-05
0.694	4.125	2.651E-05
0.698	4.115	1.212E-05
0.701	4.106	3.39E-06
0.704	4.098	5.18E-08
0.707	4.090	0
0.710	4.083	0
0.714	4.076	0
0.717	4.070	0
0.720	4.063	0
0.723	4.057	0
0.726	4.052	0
0.730	4.046	0
0.733	4.041	0
0.736	4.036	0
0.739	4.031	0
0.742	4.027	0
0.746	4.022	0
0.749	4.018	0
0.752	4.014	0
0.755	4.010	0
0.758	4.006	0
0.762	4.003	0
0.765	3.999	0
0.768	3.995	0
0.771	3.992	0
0.774	3.989	0
0.778	3.986	0
0.781	3.983	0
0.784	3.980	0
0.787	3.977	0
0.790	3.974	0
0.794	3.971	0
0.797	3.969	0
0.800	3.966	0
0.803	3.963	0
0.806	3.961	0
0.810	3.959	0
0.813	3.956	0
0.816	3.954	0
0.819	3.952	0
0.822	3.949	0
0.826	3.947	0
0.829	3.945	0
0.832	3.943	0
0.835	3.941	0
0.838	3.939	0
0.842	3.937	0
0.845	3.935	0
0.848	3.934	0
0.851	3.932	0
0.854	3.930	0
0.858	3.928	0
0.861	3.927	0
0.864	3.925	0
0.867	3.923	0
0.870	3.922	0
0.874	3.920	0
0.877	3.919	0
0.880	3.917	0
0.883	3.916	0
0.886	3.914	0
0.890	3.913	0
0.893	3.912	0
0.896	3.910	0
0.899	3.909	0
0.902	3.907	0
0.906	3.906	0
0.909	3.905	0
0.912	3.904	0
0.915	3.902	0
0.918	3.901	0
0.922	3.900	0
0.925	3.899	0
0.928	3.898	0
0.931	3.897	0
0.934	3.895	0
0.938	3.894	0
0.941	3.893	0
0.944	3.892	0
0.947	3.891	0
0.950	3.890	0
0.954	3.889	0
0.957	3.888	0
0.960	3.887	0
0.963	3.886	0
0.966	3.885	0
0.970	3.884	0
0.973	3.883	0
0.976	3.883	0
0.979	3.882	0
0.982	3.881	0
0.986	3.880	0
0.989	3.879	0
0.992	3.878	0
0.995	3.877	0
0.998	3.877	0
