Material: main / WS2 / Zotev-e
Optical constants. P. G. Zotev, Y. Wang, D. Andres-Penares, T. Severs-Millard, S. Randerson, X. Hu, L. Sortino, C. Louca, M. Brotons-Gisbert, T. Huq, S. Vezzoli, R. Sapienza, T. F. Krauss, B. D. Gerardot, A. I. Tartakovskii. Van der Waals materials for applications in nanophotonics. Laser and Photonics Rev. 17, 2200957 (2023) (Numerical data kindly provided by Panaiot Zotev)
Comments: Multilayer crystals. Out-of-plane (extraordinary ray, e). Room temperature.
wavelength (um)	n	k
0.360	2.88719	0
0.363	2.88611	0
0.366	2.88507	0
0.370	2.88405	0
0.373	2.88306	0
0.376	2.88209	0
0.379	2.88115	0
0.382	2.88023	0
0.386	2.87933	0
0.389	2.87846	0
0.392	2.87761	0
0.395	2.87677	0
0.398	2.87596	0
0.402	2.87517	0
0.405	2.87439	0
0.408	2.87364	0
0.411	2.87290	0
0.414	2.87218	0
0.418	2.87147	0
0.421	2.87078	0
0.424	2.87011	0
0.427	2.86945	0
0.430	2.86881	0
0.434	2.86818	0
0.437	2.86756	0
0.440	2.86696	0
0.443	2.86637	0
0.446	2.86579	0
0.450	2.86523	0
0.453	2.86468	0
0.456	2.86414	0
0.459	2.86361	0
0.462	2.86309	0
0.466	2.86258	0
0.469	2.86208	0
0.472	2.86160	0
0.475	2.86112	0
0.478	2.86065	0
0.482	2.86019	0
0.485	2.85974	0
0.488	2.85930	0
0.491	2.85887	0
0.494	2.85844	0
0.498	2.85803	0
0.501	2.85762	0
0.504	2.85722	0
0.507	2.85683	0
0.510	2.85644	0
0.514	2.85606	0
0.517	2.85569	0
0.520	2.85533	0
0.523	2.85497	0
0.526	2.85462	0
0.530	2.85427	0
0.532	2.85401	0
0.534	2.85377	0
0.538	2.85344	0
0.541	2.85311	0
0.544	2.85280	0
0.547	2.85248	0
0.550	2.85218	0
0.554	2.85188	0
0.557	2.85158	0
0.560	2.85129	0
0.563	2.85100	0
0.566	2.85072	0
0.570	2.85044	0
0.573	2.85017	0
0.576	2.84990	0
0.579	2.84964	0
0.582	2.84938	0
0.586	2.84912	0
0.589	2.84887	0
0.592	2.84863	0
0.595	2.84838	0
0.598	2.84815	0
0.602	2.84791	0
0.605	2.84768	0
0.608	2.84745	0
0.611	2.84723	0
0.614	2.84701	0
0.618	2.84679	0
0.621	2.84658	0
0.624	2.84637	0
0.627	2.84616	0
0.630	2.84595	0
0.634	2.84575	0
0.637	2.84556	0
0.640	2.84536	0
0.643	2.84517	0
0.646	2.84498	0
0.650	2.84479	0
0.653	2.84461	0
0.656	2.84443	0
0.659	2.84425	0
0.662	2.84407	0
0.666	2.84390	0
0.669	2.84373	0
0.672	2.84356	0
0.675	2.84339	0
0.678	2.84323	0
0.682	2.84307	0
0.685	2.84291	0
0.688	2.84275	0
0.691	2.84260	0
0.694	2.84245	0
0.698	2.84230	0
0.701	2.84215	0
0.704	2.84200	0
0.707	2.84186	0
0.710	2.84171	0
0.714	2.84157	0
0.717	2.84143	0
0.720	2.84130	0
0.723	2.84116	0
0.726	2.84103	0
0.730	2.84090	0
0.733	2.84077	0
0.736	2.84064	0
0.739	2.84051	0
0.742	2.84039	0
0.746	2.84026	0
0.749	2.84014	0
0.752	2.84002	0
0.755	2.83990	0
0.758	2.83979	0
0.762	2.83967	0
0.765	2.83956	0
0.768	2.83944	0
0.771	2.83933	0
0.774	2.83922	0
0.778	2.83911	0
0.781	2.83901	0
0.784	2.83890	0
0.787	2.83880	0
0.790	2.83869	0
0.794	2.83859	0
0.797	2.83849	0
0.800	2.83839	0
0.803	2.83829	0
0.806	2.83819	0
0.810	2.83810	0
0.813	2.83800	0
0.816	2.83791	0
0.819	2.83782	0
0.822	2.83772	0
0.826	2.83763	0
0.829	2.83754	0
0.832	2.83746	0
0.835	2.83737	0
0.838	2.83728	0
0.842	2.83720	0
0.845	2.83711	0
0.848	2.83703	0
0.851	2.83694	0
0.854	2.83686	0
0.858	2.83678	0
0.861	2.83670	0
0.864	2.83662	0
0.867	2.83654	0
0.870	2.83647	0
0.874	2.83639	0
0.877	2.83632	0
0.880	2.83624	0
0.883	2.83617	0
0.886	2.83609	0
0.890	2.83602	0
0.893	2.83595	0
0.896	2.83588	0
0.899	2.83581	0
0.902	2.83574	0
0.906	2.83567	0
0.909	2.83560	0
0.912	2.83553	0
0.915	2.83547	0
0.918	2.83540	0
0.922	2.83534	0
0.925	2.83527	0
0.928	2.83521	0
0.931	2.83515	0
0.934	2.83508	0
0.938	2.83502	0
0.941	2.83496	0
0.944	2.83490	0
0.947	2.83484	0
0.950	2.83478	0
0.954	2.83472	0
0.957	2.83466	0
0.960	2.83460	0
0.963	2.83455	0
0.966	2.83449	0
0.970	2.83444	0
0.973	2.83438	0
0.976	2.83432	0
0.979	2.83427	0
0.982	2.83422	0
0.986	2.83416	0
0.989	2.83411	0
0.992	2.83406	0
0.995	2.83401	0
0.998	2.83396	0
