Material: non-stoichiometric compounds / Si-O / Herguedas-SiO1.71
Optical constants. N. Herguedas and E. Carretero. Optical properties in mid-infrared range of silicon oxide thin films with different stoichiometries. Nanomaterials 13, 2749 (2023)
Comments: SiO1.71. Sputtered Si with 40 sccm O2 and 160 sccm Ar, which is equivalent to a oxygen partial pressure of 3.2 &times; 10-4 mbar and a total pressure of 1.7 &times; 10-3 mbar. Room temperature.
wavelength (um)	n	k
5.000	1.387	0.001
5.015	1.386	0.001
5.030	1.385	0.001
5.045	1.385	0.001
5.061	1.384	0.001
5.076	1.383	0.001
5.092	1.382	0.001
5.107	1.381	0.001
5.123	1.380	0.001
5.139	1.380	0.001
5.155	1.379	0.001
5.171	1.378	0.001
5.187	1.377	0.001
5.203	1.376	0.001
5.219	1.375	0.001
5.236	1.374	0.001
5.252	1.373	0.001
5.269	1.372	0.001
5.285	1.371	0.001
5.302	1.370	0.001
5.319	1.369	0.001
5.336	1.368	0.001
5.353	1.367	0.001
5.371	1.366	0.001
5.388	1.365	0.001
5.405	1.363	0.001
5.423	1.362	0.001
5.441	1.361	0.001
5.459	1.360	0.001
5.476	1.359	0.001
5.495	1.358	0.001
5.513	1.356	0.001
5.531	1.355	0.001
5.549	1.354	0.001
5.568	1.352	0.001
5.587	1.351	0.001
5.605	1.350	0.001
5.624	1.348	0.001
5.643	1.347	0.001
5.663	1.346	0.001
5.682	1.344	0.001
5.701	1.343	0.001
5.721	1.341	0.001
5.741	1.340	0.001
5.760	1.338	0.001
5.780	1.336	0.001
5.800	1.335	0.001
5.821	1.333	0.001
5.841	1.331	0.001
5.862	1.330	0.001
5.882	1.328	0.001
5.903	1.326	0.001
5.924	1.324	0.001
5.945	1.322	0.001
5.967	1.321	0.001
5.988	1.319	0.001
6.010	1.317	0.001
6.031	1.315	0.002
6.053	1.312	0.002
6.075	1.310	0.002
6.098	1.308	0.002
6.120	1.306	0.002
6.143	1.304	0.002
6.165	1.301	0.002
6.188	1.299	0.002
6.211	1.297	0.002
6.234	1.294	0.002
6.258	1.292	0.002
6.281	1.289	0.002
6.305	1.286	0.002
6.329	1.283	0.002
6.353	1.281	0.002
6.378	1.278	0.002
6.402	1.275	0.002
6.427	1.272	0.002
6.452	1.269	0.002
6.477	1.265	0.002
6.502	1.262	0.002
6.527	1.259	0.002
6.553	1.255	0.003
6.579	1.252	0.003
6.605	1.248	0.003
6.631	1.244	0.003
6.658	1.240	0.003
6.684	1.236	0.003
6.711	1.232	0.003
6.739	1.227	0.003
6.766	1.223	0.003
6.793	1.218	0.003
6.821	1.214	0.003
6.849	1.209	0.004
6.878	1.203	0.004
6.906	1.198	0.004
6.935	1.193	0.004
6.964	1.187	0.004
6.993	1.181	0.004
7.022	1.175	0.004
7.052	1.168	0.005
7.082	1.161	0.005
7.112	1.154	0.005
7.143	1.147	0.005
7.174	1.139	0.005
7.205	1.131	0.006
7.236	1.123	0.006
7.267	1.114	0.006
7.299	1.104	0.007
7.331	1.095	0.007
7.364	1.084	0.007
7.396	1.073	0.008
7.429	1.061	0.008
7.463	1.048	0.009
7.496	1.035	0.010
7.530	1.020	0.011
7.564	1.004	0.012
7.599	0.987	0.013
7.634	0.969	0.015
7.669	0.948	0.017
7.704	0.926	0.020
7.740	0.902	0.024
7.776	0.874	0.030
7.812	0.845	0.038
7.849	0.812	0.048
7.886	0.776	0.063
7.924	0.736	0.082
7.962	0.695	0.109
8.000	0.652	0.144
8.039	0.611	0.189
8.078	0.576	0.246
8.117	0.551	0.311
8.157	0.539	0.381
8.197	0.539	0.449
8.237	0.550	0.512
8.278	0.568	0.569
8.319	0.590	0.619
8.361	0.614	0.662
8.403	0.638	0.698
8.446	0.660	0.730
8.489	0.678	0.757
8.532	0.692	0.782
8.576	0.700	0.806
8.621	0.702	0.833
8.666	0.698	0.866
8.711	0.691	0.908
8.757	0.683	0.961
8.803	0.680	1.026
8.850	0.685	1.103
8.897	0.703	1.190
8.945	0.737	1.282
8.993	0.789	1.376
9.042	0.859	1.467
9.091	0.946	1.551
9.141	1.049	1.624
9.191	1.166	1.684
9.242	1.293	1.727
9.294	1.429	1.753
9.346	1.568	1.759
9.398	1.709	1.745
9.452	1.846	1.710
9.506	1.977	1.657
9.560	2.098	1.586
9.615	2.207	1.500
9.671	2.300	1.401
9.728	2.376	1.292
9.785	2.434	1.177
9.843	2.474	1.059
9.901	2.496	0.941
9.960	2.501	0.827
10.020	2.490	0.720
10.081	2.466	0.621
10.142	2.431	0.533
10.204	2.388	0.457
10.267	2.339	0.392
10.331	2.288	0.340
10.395	2.235	0.299
10.460	2.185	0.268
10.526	2.137	0.246
10.593	2.093	0.230
10.661	2.054	0.220
10.730	2.019	0.214
10.799	1.989	0.210
10.870	1.962	0.207
10.941	1.938	0.205
11.013	1.916	0.203
11.086	1.895	0.202
11.161	1.875	0.201
11.236	1.856	0.201
11.312	1.837	0.202
11.390	1.818	0.205
11.468	1.801	0.210
11.547	1.785	0.217
11.628	1.771	0.226
11.710	1.759	0.238
11.792	1.751	0.250
11.876	1.747	0.263
11.962	1.746	0.276
12.048	1.749	0.288
12.136	1.756	0.297
12.225	1.765	0.304
12.315	1.775	0.307
12.407	1.787	0.306
12.500	1.798	0.302
12.594	1.808	0.294
12.690	1.816	0.284
12.788	1.822	0.272
12.887	1.825	0.258
12.987	1.826	0.243
13.089	1.824	0.228
13.193	1.819	0.213
13.298	1.811	0.200
13.405	1.802	0.188
13.514	1.791	0.177
13.624	1.780	0.169
13.736	1.767	0.162
13.850	1.755	0.157
13.966	1.742	0.154
14.085	1.730	0.152
14.205	1.718	0.151
14.327	1.707	0.151
14.451	1.696	0.152
14.577	1.686	0.154
14.706	1.677	0.156
14.837	1.668	0.159
14.970	1.659	0.161
15.106	1.651	0.164
15.244	1.643	0.168
15.385	1.636	0.171
15.528	1.629	0.174
15.674	1.622	0.178
15.823	1.615	0.181
15.974	1.608	0.185
16.129	1.601	0.188
16.287	1.593	0.192
16.447	1.586	0.196
16.611	1.579	0.199
16.779	1.571	0.203
16.949	1.562	0.207
17.123	1.554	0.211
17.301	1.544	0.215
17.483	1.534	0.220
17.668	1.522	0.224
17.857	1.510	0.229
18.051	1.495	0.235
18.248	1.479	0.241
18.450	1.460	0.249
18.657	1.438	0.258
18.868	1.412	0.269
19.084	1.381	0.285
19.305	1.344	0.308
19.531	1.302	0.341
19.763	1.256	0.390
20.000	1.211	0.459
20.243	1.177	0.553
20.492	1.167	0.668
20.747	1.190	0.796
21.008	1.250	0.921
21.277	1.343	1.031
21.552	1.463	1.117
21.834	1.602	1.174
22.124	1.749	1.198
22.422	1.897	1.189
22.727	2.036	1.148
23.041	2.159	1.081
23.364	2.261	0.993
23.697	2.339	0.890
24.038	2.389	0.780
24.390	2.415	0.671
24.752	2.417	0.568
