Material: non-stoichiometric compounds / Si-O / Herguedas-SiO1.10
Optical constants. N. Herguedas and E. Carretero. Optical properties in mid-infrared range of silicon oxide thin films with different stoichiometries. Nanomaterials 13, 2749 (2023)
Comments: SiO1.10. Sputtered Si with 30 sccm O2 and 170 sccm Ar, which is equivalent to a oxygen partial pressure of 2.5 &times; 10-4 mbar and a total pressure of 1.8 &times; 10-3 mbar. Room temperature.
wavelength (um)	n	k
5.000	1.710	0.000
5.015	1.709	0.000
5.030	1.709	0.000
5.045	1.708	0.000
5.061	1.707	0.000
5.076	1.707	0.000
5.092	1.706	0.000
5.107	1.705	0.000
5.123	1.705	0.000
5.139	1.704	0.000
5.155	1.703	0.000
5.171	1.703	0.000
5.187	1.702	0.000
5.203	1.701	0.000
5.219	1.700	0.000
5.236	1.699	0.000
5.252	1.699	0.000
5.269	1.698	0.000
5.285	1.697	0.000
5.302	1.696	0.000
5.319	1.695	0.000
5.336	1.695	0.000
5.353	1.694	0.000
5.371	1.693	0.001
5.388	1.692	0.001
5.405	1.691	0.001
5.423	1.690	0.001
5.441	1.689	0.001
5.459	1.688	0.001
5.476	1.687	0.001
5.495	1.686	0.001
5.513	1.685	0.001
5.531	1.684	0.001
5.549	1.683	0.001
5.568	1.682	0.001
5.587	1.681	0.001
5.605	1.680	0.001
5.624	1.679	0.001
5.643	1.678	0.001
5.663	1.677	0.001
5.682	1.676	0.001
5.701	1.675	0.001
5.721	1.674	0.001
5.741	1.672	0.001
5.760	1.671	0.001
5.780	1.670	0.001
5.800	1.669	0.001
5.821	1.667	0.001
5.841	1.666	0.001
5.862	1.665	0.001
5.882	1.663	0.002
5.903	1.662	0.002
5.924	1.660	0.002
5.945	1.659	0.002
5.967	1.658	0.002
5.988	1.656	0.002
6.010	1.655	0.002
6.031	1.653	0.002
6.053	1.651	0.002
6.075	1.650	0.002
6.098	1.648	0.002
6.120	1.646	0.002
6.143	1.645	0.002
6.165	1.643	0.003
6.188	1.641	0.003
6.211	1.639	0.003
6.234	1.638	0.003
6.258	1.636	0.003
6.281	1.634	0.003
6.305	1.632	0.003
6.329	1.630	0.003
6.353	1.628	0.004
6.378	1.626	0.004
6.402	1.623	0.004
6.427	1.621	0.004
6.452	1.619	0.004
6.477	1.617	0.004
6.502	1.614	0.005
6.527	1.612	0.005
6.553	1.609	0.005
6.579	1.607	0.005
6.605	1.604	0.005
6.631	1.601	0.006
6.658	1.599	0.006
6.684	1.596	0.006
6.711	1.593	0.006
6.739	1.590	0.006
6.766	1.587	0.007
6.793	1.583	0.007
6.821	1.580	0.007
6.849	1.577	0.008
6.878	1.573	0.008
6.906	1.570	0.008
6.935	1.566	0.008
6.964	1.562	0.009
6.993	1.558	0.009
7.022	1.554	0.009
7.052	1.550	0.010
7.082	1.546	0.010
7.112	1.541	0.011
7.143	1.537	0.011
7.174	1.532	0.011
7.205	1.527	0.012
7.236	1.522	0.012
7.267	1.516	0.013
7.299	1.511	0.013
7.331	1.505	0.014
7.364	1.498	0.014
7.396	1.492	0.015
7.429	1.485	0.016
7.463	1.478	0.016
7.496	1.471	0.017
7.530	1.463	0.018
7.564	1.454	0.018
7.599	1.446	0.019
7.634	1.436	0.020
7.669	1.426	0.021
7.704	1.415	0.022
7.740	1.403	0.023
7.776	1.391	0.025
7.812	1.377	0.027
7.849	1.362	0.029
7.886	1.345	0.032
7.924	1.328	0.036
7.962	1.308	0.042
8.000	1.287	0.049
8.039	1.265	0.059
8.078	1.241	0.071
8.117	1.216	0.087
8.157	1.191	0.106
8.197	1.167	0.130
8.237	1.145	0.157
8.278	1.125	0.188
8.319	1.108	0.222
8.361	1.095	0.257
8.403	1.087	0.294
8.446	1.081	0.329
8.489	1.078	0.364
8.532	1.076	0.397
8.576	1.074	0.428
8.621	1.071	0.460
8.666	1.066	0.493
8.711	1.060	0.528
8.757	1.053	0.569
8.803	1.047	0.615
8.850	1.045	0.667
8.897	1.048	0.726
8.945	1.059	0.789
8.993	1.080	0.855
9.042	1.111	0.922
9.091	1.152	0.986
9.141	1.203	1.045
9.191	1.263	1.099
9.242	1.329	1.146
9.294	1.401	1.184
9.346	1.478	1.213
9.398	1.557	1.234
9.452	1.638	1.245
9.506	1.719	1.247
9.560	1.799	1.240
9.615	1.876	1.225
9.671	1.951	1.201
9.728	2.021	1.170
9.785	2.086	1.133
9.843	2.146	1.089
9.901	2.199	1.041
9.960	2.245	0.988
10.020	2.285	0.933
10.081	2.317	0.875
10.142	2.342	0.816
10.204	2.360	0.758
10.267	2.371	0.700
10.331	2.376	0.643
10.395	2.374	0.589
10.460	2.367	0.538
10.526	2.356	0.491
10.593	2.340	0.448
10.661	2.321	0.409
10.730	2.299	0.375
10.799	2.276	0.345
10.870	2.251	0.320
10.941	2.226	0.300
11.013	2.201	0.284
11.086	2.177	0.271
11.161	2.153	0.262
11.236	2.132	0.257
11.312	2.112	0.254
11.390	2.095	0.253
11.468	2.079	0.254
11.547	2.066	0.256
11.628	2.054	0.259
11.710	2.045	0.263
11.792	2.038	0.267
11.876	2.032	0.270
11.962	2.028	0.274
12.048	2.026	0.277
12.136	2.024	0.279
12.225	2.023	0.280
12.315	2.023	0.281
12.407	2.024	0.281
12.500	2.025	0.281
12.594	2.026	0.279
12.690	2.027	0.277
12.788	2.028	0.274
12.887	2.029	0.271
12.987	2.029	0.267
13.089	2.030	0.263
13.193	2.029	0.258
13.298	2.029	0.253
13.405	2.028	0.248
13.514	2.026	0.243
13.624	2.024	0.238
13.736	2.022	0.232
13.850	2.019	0.227
13.966	2.015	0.222
14.085	2.011	0.218
14.205	2.007	0.213
14.327	2.002	0.209
14.451	1.997	0.205
14.577	1.992	0.202
14.706	1.986	0.199
14.837	1.981	0.196
14.970	1.975	0.194
15.106	1.969	0.192
15.244	1.963	0.191
15.385	1.956	0.190
15.528	1.950	0.189
15.674	1.944	0.189
15.823	1.937	0.189
15.974	1.931	0.190
16.129	1.925	0.191
16.287	1.918	0.192
16.447	1.912	0.193
16.611	1.906	0.195
16.779	1.899	0.197
16.949	1.893	0.199
17.123	1.886	0.201
17.301	1.880	0.204
17.483	1.873	0.206
17.668	1.866	0.209
17.857	1.858	0.212
18.051	1.850	0.216
18.248	1.841	0.220
18.450	1.831	0.224
18.657	1.821	0.229
18.868	1.808	0.234
19.084	1.794	0.242
19.305	1.778	0.251
19.531	1.760	0.263
19.763	1.740	0.280
20.000	1.719	0.303
20.243	1.699	0.334
20.492	1.682	0.373
20.747	1.672	0.421
21.008	1.672	0.477
21.277	1.686	0.536
21.552	1.716	0.595
21.834	1.762	0.647
22.124	1.820	0.688
22.422	1.887	0.715
22.727	1.958	0.725
23.041	2.028	0.718
23.364	2.093	0.697
23.697	2.149	0.662
24.038	2.193	0.619
24.390	2.224	0.570
24.752	2.242	0.520
