Material: non-stoichiometric compounds / Si-O / Herguedas-SiO1.89
Optical constants. N. Herguedas and E. Carretero. Optical properties in mid-infrared range of silicon oxide thin films with different stoichiometries. Nanomaterials 13, 2749 (2023)
Comments: SiO1.89. Sputtered Si with 80 sccm O2 and 120 sccm Ar, which is equivalent to a oxygen partial pressure of 5.9 &times; 10-4 mbar and a total pressure of 1.6 &times; 10-3 mbar. Room temperature.
wavelength (um)	n	k
5.000	1.332	0.001
5.015	1.331	0.001
5.030	1.331	0.001
5.045	1.330	0.001
5.061	1.329	0.001
5.076	1.328	0.001
5.092	1.327	0.001
5.107	1.326	0.001
5.123	1.325	0.001
5.139	1.324	0.001
5.155	1.324	0.001
5.171	1.323	0.001
5.187	1.322	0.002
5.203	1.321	0.002
5.219	1.320	0.002
5.236	1.319	0.002
5.252	1.318	0.002
5.269	1.317	0.002
5.285	1.316	0.002
5.302	1.315	0.002
5.319	1.313	0.002
5.336	1.312	0.002
5.353	1.311	0.002
5.371	1.310	0.002
5.388	1.309	0.002
5.405	1.308	0.002
5.423	1.307	0.002
5.441	1.305	0.002
5.459	1.304	0.002
5.476	1.303	0.002
5.495	1.302	0.002
5.513	1.300	0.002
5.531	1.299	0.002
5.549	1.298	0.002
5.568	1.296	0.002
5.587	1.295	0.002
5.605	1.294	0.002
5.624	1.292	0.002
5.643	1.291	0.002
5.663	1.289	0.002
5.682	1.288	0.002
5.701	1.286	0.002
5.721	1.285	0.002
5.741	1.283	0.002
5.760	1.281	0.002
5.780	1.280	0.002
5.800	1.278	0.003
5.821	1.276	0.003
5.841	1.274	0.003
5.862	1.273	0.003
5.882	1.271	0.003
5.903	1.269	0.003
5.924	1.267	0.003
5.945	1.265	0.003
5.967	1.263	0.003
5.988	1.261	0.003
6.010	1.259	0.003
6.031	1.257	0.003
6.053	1.255	0.003
6.075	1.252	0.003
6.098	1.250	0.003
6.120	1.248	0.003
6.143	1.245	0.003
6.165	1.243	0.004
6.188	1.241	0.004
6.211	1.238	0.004
6.234	1.235	0.004
6.258	1.233	0.004
6.281	1.230	0.004
6.305	1.227	0.004
6.329	1.224	0.004
6.353	1.221	0.004
6.378	1.218	0.004
6.402	1.215	0.004
6.427	1.212	0.005
6.452	1.209	0.005
6.477	1.205	0.005
6.502	1.202	0.005
6.527	1.198	0.005
6.553	1.195	0.005
6.579	1.191	0.005
6.605	1.187	0.005
6.631	1.183	0.006
6.658	1.179	0.006
6.684	1.174	0.006
6.711	1.170	0.006
6.739	1.165	0.006
6.766	1.161	0.007
6.793	1.156	0.007
6.821	1.151	0.007
6.849	1.146	0.007
6.878	1.140	0.007
6.906	1.135	0.008
6.935	1.129	0.008
6.964	1.123	0.008
6.993	1.116	0.008
7.022	1.110	0.009
7.052	1.103	0.009
7.082	1.096	0.009
7.112	1.088	0.010
7.143	1.080	0.010
7.174	1.072	0.011
7.205	1.063	0.011
7.236	1.054	0.012
7.267	1.045	0.012
7.299	1.035	0.013
7.331	1.024	0.013
7.364	1.013	0.014
7.396	1.001	0.015
7.429	0.988	0.016
7.463	0.974	0.017
7.496	0.959	0.018
7.530	0.943	0.019
7.564	0.926	0.021
7.599	0.907	0.023
7.634	0.887	0.026
7.669	0.864	0.029
7.704	0.840	0.034
7.740	0.812	0.040
7.776	0.782	0.048
7.812	0.749	0.059
7.849	0.712	0.074
7.886	0.672	0.094
7.924	0.630	0.122
7.962	0.586	0.159
8.000	0.545	0.207
8.039	0.511	0.267
8.078	0.489	0.335
8.117	0.482	0.405
8.157	0.486	0.471
8.197	0.499	0.532
8.237	0.518	0.586
8.278	0.541	0.633
8.319	0.564	0.673
8.361	0.588	0.706
8.403	0.608	0.734
8.446	0.624	0.758
8.489	0.634	0.778
8.532	0.637	0.799
8.576	0.632	0.822
8.621	0.618	0.852
8.666	0.597	0.893
8.711	0.574	0.950
8.757	0.554	1.024
8.803	0.543	1.117
8.850	0.550	1.224
8.897	0.577	1.341
8.945	0.627	1.462
8.993	0.702	1.582
9.042	0.800	1.695
9.091	0.921	1.796
9.141	1.062	1.880
9.191	1.220	1.944
9.242	1.391	1.984
9.294	1.569	1.996
9.346	1.750	1.981
9.398	1.929	1.938
9.452	2.098	1.867
9.506	2.254	1.770
9.560	2.391	1.652
9.615	2.505	1.517
9.671	2.595	1.369
9.728	2.659	1.214
9.785	2.697	1.057
9.843	2.709	0.904
9.901	2.700	0.758
9.960	2.670	0.625
10.020	2.625	0.505
10.081	2.568	0.401
10.142	2.503	0.314
10.204	2.434	0.242
10.267	2.364	0.186
10.331	2.296	0.143
10.395	2.230	0.111
10.460	2.170	0.088
10.526	2.114	0.072
10.593	2.063	0.061
10.661	2.018	0.055
10.730	1.976	0.051
10.799	1.938	0.049
10.870	1.904	0.048
10.941	1.871	0.049
11.013	1.841	0.050
11.086	1.812	0.053
11.161	1.783	0.056
11.236	1.756	0.061
11.312	1.728	0.067
11.390	1.701	0.076
11.468	1.675	0.089
11.547	1.650	0.106
11.628	1.628	0.127
11.710	1.610	0.153
11.792	1.599	0.183
11.876	1.596	0.215
11.962	1.603	0.246
12.048	1.619	0.273
12.136	1.642	0.293
12.225	1.670	0.304
12.315	1.700	0.305
12.407	1.727	0.296
12.500	1.750	0.279
12.594	1.767	0.256
12.690	1.776	0.230
12.788	1.778	0.203
12.887	1.773	0.177
12.987	1.763	0.154
13.089	1.749	0.135
13.193	1.733	0.120
13.298	1.715	0.109
13.405	1.698	0.101
13.514	1.681	0.096
13.624	1.665	0.093
13.736	1.650	0.092
13.850	1.636	0.092
13.966	1.623	0.092
14.085	1.611	0.093
14.205	1.600	0.095
14.327	1.589	0.097
14.451	1.578	0.099
14.577	1.568	0.101
14.706	1.559	0.104
14.837	1.549	0.107
14.970	1.540	0.109
15.106	1.530	0.112
15.244	1.521	0.115
15.385	1.512	0.119
15.528	1.503	0.122
15.674	1.493	0.125
15.823	1.484	0.129
15.974	1.475	0.133
16.129	1.465	0.137
16.287	1.455	0.141
16.447	1.445	0.145
16.611	1.434	0.150
16.779	1.423	0.155
16.949	1.411	0.160
17.123	1.399	0.165
17.301	1.386	0.171
17.483	1.372	0.178
17.668	1.356	0.184
17.857	1.340	0.192
18.051	1.322	0.200
18.248	1.301	0.209
18.450	1.279	0.219
18.657	1.252	0.232
18.868	1.222	0.246
19.084	1.186	0.265
19.305	1.142	0.289
19.531	1.090	0.325
19.763	1.028	0.378
20.000	0.962	0.462
20.243	0.907	0.586
20.492	0.891	0.748
20.747	0.931	0.926
21.008	1.030	1.093
21.277	1.177	1.228
21.552	1.360	1.319
21.834	1.561	1.357
22.124	1.764	1.339
22.422	1.949	1.268
22.727	2.102	1.154
23.041	2.211	1.011
23.364	2.273	0.857
23.697	2.289	0.707
24.038	2.268	0.574
24.390	2.221	0.466
24.752	2.159	0.388
