Material: main / Te / Matteo-o
Optical constants. D. Matteo, S. Tochitsky, C. Joshi. Tellurium crystal pumped with ultrafast 10 Âµm pulses demonstrates a giant nonlinear optical response. Opt. Express 31, 27239 (2023)
Comments: Ordinary ray (o). 220 fs. Spectral broadening.
Conditions: {"n2_method": "SB", "pulse_duration": "220e-15"}
wavelength (um)	n	2
10.6	3.0e-16
