Material: organic / (C31H38N2S3)n - ZZ50 / Kamptner-e
Optical constants. A. Kamptner, M. C. Scharber, M. Schiek. Accurate determination of the uniaxial complex refractive index and the optical band gap of polymer thin films to correlate their absorption strength and onset of absorption. Chem. Phys. Chem. e202400233 (2024) (Numerical data kindly provided by Manuela Schiek)
Comments: Extraordinary ray (e)
wavelength (um)	n	k
0.19146	1.92985	2.94300E-01
0.19465	1.82870	2.82120E-01
0.19784	1.83103	2.91180E-01
0.20104	1.85490	2.36120E-01
0.20423	1.83719	1.64940E-01
0.20742	1.79686	1.21180E-01
0.21062	1.76282	9.94600E-02
0.21381	1.73969	8.51700E-02
0.21701	1.72332	7.09700E-02
0.22020	1.70938	5.34300E-02
0.22340	1.69125	3.29300E-02
0.22659	1.66626	1.50100E-02
0.22979	1.63661	4.65000E-03
0.23298	1.60681	2.91000E-03
0.23618	1.57965	8.90000E-03
0.23938	1.55800	2.12600E-02
0.24257	1.54370	3.63300E-02
0.24577	1.53581	0.05013
0.24897	1.53032	0.06028
0.25216	1.52361	0.06944
0.25536	1.51599	0.08115
0.25856	1.51096	9.78900E-02
0.26176	1.51336	1.16960E-01
0.26496	1.52352	1.33290E-01
0.26815	1.53880	1.42870E-01
0.27135	1.55375	1.44430E-01
0.27455	1.56484	1.41250E-01
0.27775	1.57160	1.36550E-01
0.28095	1.57504	1.32920E-01
0.28415	1.57774	1.31350E-01
0.28735	1.58121	1.30680E-01
0.29055	1.58570	1.29730E-01
0.29375	1.59084	1.27530E-01
0.29695	1.59552	1.23600E-01
0.30015	1.59881	1.18600E-01
0.30335	1.60051	1.13320E-01
0.30655	1.60079	1.08430E-01
0.30975	1.60012	1.04490E-01
0.31295	1.59934	1.01620E-01
0.31615	1.59894	9.92900E-02
0.31935	1.59899	9.70300E-02
0.32255	1.59936	9.44200E-02
0.32576	1.59975	9.10900E-02
0.32896	1.59947	8.69400E-02
0.33216	1.59808	8.24400E-02
0.33536	1.59545	7.80600E-02
0.33856	1.59166	7.42200E-02
0.34176	1.58687	7.13100E-02
0.34497	1.58141	6.96400E-02
0.34817	1.57578	6.93600E-02
0.35137	1.57034	7.03000E-02
0.35457	1.56530	7.23000E-02
0.35777	1.56081	7.52300E-02
0.36098	1.55701	7.89300E-02
0.36418	1.55398	8.33000E-02
0.36738	1.55184	8.81800E-02
0.37058	1.55068	9.34100E-02
0.37379	1.55053	9.87800E-02
0.37699	1.55138	1.04110E-01
0.38019	1.55320	1.09260E-01
0.38339	1.55594	1.14080E-01
0.38660	1.55956	1.18450E-01
0.38980	1.56403	1.22250E-01
0.39300	1.56932	1.25320E-01
0.39621	1.57535	1.27430E-01
0.39941	1.58195	1.28420E-01
0.40261	1.58894	1.28140E-01
0.40581	1.59607	1.26460E-01
0.40902	1.60311	1.23280E-01
0.41222	1.60975	1.18510E-01
0.41542	1.61559	1.12100E-01
0.41863	1.62005	1.04200E-01
0.42183	1.62273	9.53100E-02
0.42503	1.62352	8.59100E-02
0.42823	1.62241	7.64300E-02
0.43144	1.61946	6.72400E-02
0.43464	1.61479	5.87100E-02
0.43784	1.60857	5.11400E-02
0.44105	1.60102	4.48500E-02
0.44425	1.59244	4.01300E-02
0.44745	1.58332	3.72100E-02
0.45065	1.57421	3.60000E-02
0.45386	1.56547	3.62500E-02
0.45706	1.55729	3.77000E-02
0.46026	1.54980	4.01300E-02
0.46346	1.54309	4.33000E-02
0.46667	1.53718	4.70000E-02
0.46987	1.53208	5.10500E-02
0.47307	1.52775	5.52400E-02
0.47627	1.52411	5.94000E-02
0.47947	1.52106	6.33900E-02
0.48267	1.51840	6.70600E-02
0.48588	1.51591	7.04200E-02
0.48908	1.51344	7.35700E-02
0.49228	1.51093	7.65900E-02
0.49548	1.50834	7.95700E-02
0.49868	1.50563	8.25900E-02
0.50188	1.50283	8.57000E-02
0.50508	1.49992	8.89800E-02
0.50828	1.49694	9.24800E-02
0.51149	1.49392	9.62700E-02
0.51469	1.49090	1.00370E-01
0.51789	1.48795	1.04850E-01
0.52109	1.48513	1.09740E-01
0.52429	1.48257	1.15050E-01
0.52749	1.48040	1.20740E-01
0.53069	1.47869	1.26690E-01
0.53389	1.47747	1.32810E-01
0.53709	1.47675	1.39020E-01
0.54028	1.47652	1.45220E-01
0.54348	1.47677	1.51350E-01
0.54668	1.47747	1.57340E-01
0.54988	1.47858	1.63120E-01
0.55308	1.48004	1.68630E-01
0.55628	1.48182	1.73820E-01
0.55948	1.48384	1.78660E-01
0.56267	1.48605	1.83090E-01
0.56587	1.48834	1.87100E-01
0.56907	1.49065	1.90650E-01
0.57227	1.49283	1.93730E-01
0.57546	1.49473	1.96390E-01
0.57866	1.49622	1.98750E-01
0.58186	1.49727	2.00950E-01
0.58505	1.49786	2.03110E-01
0.58825	1.49799	2.05330E-01
0.59144	1.49768	2.07730E-01
0.59464	1.49697	2.10380E-01
0.59783	1.49588	2.13380E-01
0.60103	1.49449	2.16790E-01
0.60422	1.49283	2.20700E-01
0.60742	1.49098	2.25170E-01
0.61061	1.48901	2.30260E-01
0.61381	1.48701	2.36010E-01
0.61700	1.48508	2.42480E-01
0.62019	1.48330	2.49700E-01
0.62339	1.48181	2.57700E-01
0.62658	1.48072	2.66510E-01
0.62977	1.48020	2.76120E-01
0.63296	1.48044	2.86530E-01
0.63616	1.48167	2.97600E-01
0.63935	1.48400	3.09100E-01
0.64254	1.48750	3.20860E-01
0.64573	1.49216	3.32700E-01
0.64892	1.49798	3.44450E-01
0.65211	1.50492	3.55960E-01
0.65530	1.51293	3.67120E-01
0.65849	1.52195	3.77800E-01
0.66168	1.53190	3.87900E-01
0.66487	1.54271	3.97350E-01
0.66805	1.55428	4.06060E-01
0.67124	1.56655	4.13980E-01
0.67443	1.57941	4.21060E-01
0.67762	1.59278	4.27260E-01
0.68080	1.60658	4.32560E-01
0.68399	1.62073	4.36920E-01
0.68718	1.63513	4.40330E-01
0.69036	1.64970	4.42790E-01
0.69355	1.66437	4.44280E-01
0.69673	1.67905	4.44820E-01
0.69992	1.69365	4.44390E-01
0.70310	1.70809	4.43020E-01
0.70628	1.72226	4.40720E-01
0.70947	1.73602	4.37550E-01
0.71265	1.74932	4.33620E-01
0.71583	1.76212	4.29020E-01
0.71902	1.77440	4.23820E-01
0.72220	1.78614	4.18100E-01
0.72538	1.79734	4.11910E-01
0.72856	1.80800	4.05310E-01
0.73174	1.81811	3.98360E-01
0.73492	1.82768	3.91100E-01
0.73810	1.83673	3.83570E-01
0.74128	1.84525	3.75810E-01
0.74446	1.85326	3.67860E-01
0.74763	1.86076	3.59740E-01
0.75081	1.86778	3.51500E-01
0.75399	1.87431	3.43160E-01
0.75716	1.88037	3.34740E-01
0.76034	1.88598	3.26270E-01
0.76352	1.89115	3.17770E-01
0.76669	1.89589	3.09270E-01
0.76987	1.90022	3.00780E-01
0.77304	1.90414	2.92320E-01
0.77621	1.90768	2.83900E-01
0.77939	1.91084	2.75560E-01
0.78256	1.91365	2.67290E-01
0.78573	1.91611	2.59120E-01
0.78890	1.91825	2.51050E-01
0.79207	1.92008	2.43110E-01
0.79524	1.92161	2.35300E-01
0.79841	1.92287	2.27630E-01
0.80158	1.92388	2.20120E-01
0.80475	1.92466	2.12750E-01
0.80792	1.92522	2.05530E-01
0.81109	1.92559	1.98460E-01
0.81425	1.92576	1.91520E-01
0.81742	1.92576	1.84730E-01
0.82058	1.92558	1.78080E-01
0.82375	1.92524	1.71570E-01
0.82691	1.92475	1.65190E-01
0.83008	1.92411	1.58960E-01
0.83324	1.92332	1.52860E-01
0.83641	1.92241	1.46890E-01
0.83957	1.92136	1.41070E-01
0.84273	1.92020	1.35370E-01
0.84589	1.91891	1.29810E-01
0.84905	1.91752	1.24390E-01
0.85221	1.91602	1.19100E-01
0.85537	1.91442	1.13940E-01
0.85853	1.91273	1.08910E-01
0.86169	1.91095	1.04010E-01
0.86484	1.90908	9.92500E-02
0.86800	1.90713	9.46200E-02
0.87116	1.90510	9.01200E-02
0.87431	1.90300	8.57500E-02
0.87747	1.90084	8.15000E-02
0.88062	1.89861	7.73900E-02
0.88377	1.89632	7.34100E-02
0.88693	1.89397	6.95600E-02
0.89008	1.89158	6.58400E-02
0.89323	1.88914	6.22400E-02
0.89638	1.88665	5.87700E-02
0.89953	1.88413	5.54300E-02
0.90268	1.88158	5.22200E-02
0.90583	1.87899	4.91400E-02
0.90898	1.87638	4.61800E-02
0.91212	1.87375	4.33500E-02
0.91527	1.87111	4.06500E-02
0.91842	1.86845	3.80700E-02
0.92156	1.86579	3.56200E-02
0.92470	1.86314	3.32900E-02
0.92785	1.86050	3.10800E-02
0.93099	1.85787	2.89800E-02
0.93413	1.85526	2.69900E-02
0.93728	1.85267	2.51000E-02
0.94042	1.85011	2.33200E-02
0.94356	1.84756	2.16300E-02
0.94669	1.84505	2.00300E-02
0.94983	1.84257	1.85300E-02
0.95297	1.84012	1.71000E-02
0.95611	1.83770	1.57700E-02
0.95924	1.83532	1.45100E-02
0.96238	1.83297	1.33200E-02
0.96551	1.83066	1.22100E-02
0.96865	1.82839	1.11700E-02
0.97178	1.82615	1.01900E-02
0.97491	1.82396	9.28000E-03
0.97804	1.82180	8.43000E-03
0.98117	1.81968	7.63000E-03
0.98430	1.81761	6.90000E-03
0.98743	1.81557	6.21000E-03
0.99056	1.81358	5.58000E-03
0.99369	1.81162	4.99000E-03
0.99681	1.80971	4.45000E-03
0.99994	1.80784	3.95000E-03
1.01681	1.79845	1.92000E-03
1.02367	1.79496	1.36000E-03
1.03052	1.79166	9.28000E-04
1.03738	1.78855	6.01000E-04
1.04423	1.78561	3.64000E-04
1.05109	1.78285	2.01000E-04
1.05795	1.78025	9.70000E-05
1.06480	1.77781	3.70000E-05
1.07166	1.77551	9.00000E-06
1.07851	1.77335	1.00000E-06
1.08537	1.77131	0
1.09223	1.76939	0
1.09908	1.76756	0
1.10594	1.76581	0
1.11280	1.76415	0
1.11965	1.76256	0
1.12651	1.76103	0
1.13337	1.75957	0
1.14022	1.75816	0
1.14708	1.75681	0
1.15394	1.75551	0
1.16080	1.75426	0
1.16766	1.75305	0
1.17452	1.75189	0
1.18138	1.75076	0
1.18824	1.74968	0
1.19510	1.74863	0
1.20196	1.74761	0
1.20883	1.74663	0
1.21569	1.74567	0
1.22255	1.74475	0
1.22942	1.74385	0
1.23628	1.74299	0
1.24315	1.74214	0
1.25001	1.74132	0
1.25688	1.74053	0
1.26375	1.73975	0
1.27062	1.73900	0
1.27749	1.73827	0
1.28436	1.73756	0
1.29123	1.73686	0
1.29810	1.73619	0
1.30497	1.73553	0
1.31185	1.73489	0
1.31872	1.73426	0
1.32560	1.73365	0
1.33248	1.73306	0
1.33935	1.73248	0
1.34623	1.73191	0
1.35311	1.73136	0
1.36000	1.73082	0
1.36688	1.73029	0
1.37376	1.72977	0
1.38065	1.72927	0
1.38753	1.72878	0
1.39442	1.72830	0
1.40131	1.72782	0
1.40820	1.72736	0
1.41509	1.72691	0
1.42199	1.72647	0
1.42888	1.72604	0
1.43578	1.72562	0
1.44267	1.72520	0
1.44957	1.72480	0
1.45647	1.72440	0
1.46337	1.72401	0
1.47028	1.72363	0
1.47718	1.72325	0
1.48409	1.72288	0
1.49100	1.72252	0
1.49791	1.72217	0
1.50482	1.72182	0
1.51173	1.72148	0
1.51865	1.72115	0
1.52556	1.72082	0
1.53248	1.72050	0
1.53940	1.72019	0
1.54633	1.71988	0
1.55325	1.71957	0
1.56018	1.71927	0
1.56711	1.71898	0
1.57404	1.71869	0
1.58097	1.71841	0
1.58790	1.71813	0
1.59484	1.71785	0
1.60178	1.71759	0
1.60872	1.71732	0
1.61566	1.71706	0
1.62260	1.71681	0
1.62955	1.71655	0
1.63650	1.71631	0
1.64345	1.71606	0
1.65040	1.71582	0
1.65736	1.71559	0
1.66432	1.71536	0
1.67128	1.71513	0
1.67824	1.71490	0
1.68520	1.71468	0
