Material: organic / (C31H38N2S3)n - ZZ50 / Kamptner-o
Optical constants. A. Kamptner, M. C. Scharber, M. Schiek. Accurate determination of the uniaxial complex refractive index and the optical band gap of polymer thin films to correlate their absorption strength and onset of absorption. Chem. Phys. Chem. e202400233 (2024) (Numerical data kindly provided by Manuela Schiek)
Comments: Ordinary ray (o)
wavelength (um)	n	k
0.19146	1.72219	2.57440E-01
0.19465	1.70128	2.66560E-01
0.19784	1.71495	2.68120E-01
0.20104	1.73023	2.43640E-01
0.20423	1.73055	2.12380E-01
0.20742	1.72131	1.85940E-01
0.21062	1.70929	1.65830E-01
0.21381	1.69760	1.49560E-01
0.21701	1.68646	1.35020E-01
0.22020	1.67493	1.20810E-01
0.22340	1.66124	1.07150E-01
0.22659	1.64463	9.57400E-02
0.22979	1.62619	8.83300E-02
0.23298	1.60743	8.52100E-02
0.23618	1.58952	8.63700E-02
0.23938	1.57380	9.15500E-02
0.24257	1.56191	9.98200E-02
0.24577	1.55458	1.08620E-01
0.24897	1.55043	1.16060E-01
0.25216	1.54772	1.21680E-01
0.25536	1.54526	1.26360E-01
0.25856	1.54322	1.30920E-01
0.26176	1.54217	1.35510E-01
0.26496	1.54260	1.39240E-01
0.26815	1.54338	1.41100E-01
0.27135	1.54317	1.41830E-01
0.27455	1.54177	1.42570E-01
0.27775	1.53966	1.44290E-01
0.28095	1.53801	1.47400E-01
0.28415	1.53775	1.51250E-01
0.28735	1.53931	1.54990E-01
0.29055	1.54252	1.57490E-01
0.29375	1.54649	1.57980E-01
0.29695	1.55025	1.56430E-01
0.30015	1.55292	1.53040E-01
0.30335	1.55383	1.48630E-01
0.30655	1.55292	1.44070E-01
0.30975	1.55045	1.40020E-01
0.31295	1.54690	1.37010E-01
0.31615	1.54311	1.35200E-01
0.31935	1.53959	1.34130E-01
0.32255	1.53650	1.33310E-01
0.32576	1.53377	1.32320E-01
0.32896	1.53110	1.30740E-01
0.33216	1.52787	1.28400E-01
0.33536	1.52355	1.25650E-01
0.33856	1.51797	1.22930E-01
0.34176	1.51104	1.20640E-01
0.34497	1.50282	1.19200E-01
0.34817	1.49354	1.19030E-01
0.35137	1.48358	1.20340E-01
0.35457	1.47324	1.23150E-01
0.35777	1.46269	1.27450E-01
0.36098	1.45199	1.33310E-01
0.36418	1.44130	1.40990E-01
0.36738	1.43098	1.50730E-01
0.37058	1.42160	1.62640E-01
0.37379	1.41375	1.76480E-01
0.37699	1.40779	1.91860E-01
0.38019	1.40388	2.08400E-01
0.38339	1.40211	2.25850E-01
0.38660	1.40262	2.44060E-01
0.38980	1.40572	2.62870E-01
0.39300	1.41188	2.82000E-01
0.39621	1.42166	3.00580E-01
0.39941	1.43493	3.17500E-01
0.40261	1.45115	3.31860E-01
0.40581	1.46951	3.43050E-01
0.40902	1.48909	3.50950E-01
0.41222	1.50933	3.55730E-01
0.41542	1.52985	3.57520E-01
0.41863	1.55041	3.56440E-01
0.42183	1.57093	3.52380E-01
0.42503	1.59105	3.45040E-01
0.42823	1.61021	3.34190E-01
0.43144	1.62768	3.19650E-01
0.43464	1.64230	3.01470E-01
0.43784	1.65298	2.80610E-01
0.44105	1.65936	2.58200E-01
0.44425	1.66141	2.35170E-01
0.44745	1.65922	2.12310E-01
0.45065	1.65299	1.90350E-01
0.45386	1.64297	1.69990E-01
0.45706	1.62953	1.51890E-01
0.46026	1.61317	1.36700E-01
0.46346	1.59458	1.25060E-01
0.46667	1.57489	1.17550E-01
0.46987	1.55560	1.13820E-01
0.47307	1.53747	1.13030E-01
0.47627	1.52087	1.14350E-01
0.47947	1.50589	1.16990E-01
0.48267	1.49237	1.20220E-01
0.48588	1.47972	1.23500E-01
0.48908	1.46738	1.26870E-01
0.49228	1.45509	1.30520E-01
0.49548	1.44275	1.34610E-01
0.49868	1.43032	1.39300E-01
0.50188	1.41782	1.44720E-01
0.50508	1.40537	1.50980E-01
0.50828	1.39310	1.58070E-01
0.51149	1.38108	1.65960E-01
0.51469	1.36935	1.74580E-01
0.51789	1.35796	1.83920E-01
0.52109	1.34691	1.93920E-01
0.52429	1.33622	2.04540E-01
0.52749	1.32587	2.15770E-01
0.53069	1.31586	2.27620E-01
0.53389	1.30621	2.40100E-01
0.53709	1.29695	2.53200E-01
0.54028	1.28810	2.66920E-01
0.54348	1.27971	2.81260E-01
0.54668	1.27181	2.96220E-01
0.54988	1.26444	3.11770E-01
0.55308	1.25764	3.27870E-01
0.55628	1.25144	3.44490E-01
0.55948	1.24585	3.61580E-01
0.56267	1.24089	3.79110E-01
0.56587	1.23654	3.97040E-01
0.56907	1.23279	4.15340E-01
0.57227	1.22961	4.33970E-01
0.57546	1.22692	4.52950E-01
0.57866	1.22471	4.72380E-01
0.58186	1.22301	4.92340E-01
0.58505	1.22190	5.12870E-01
0.58825	1.22146	5.34020E-01
0.59144	1.22180	5.55790E-01
0.59464	1.22300	5.78180E-01
0.59783	1.22519	6.01170E-01
0.60103	1.22848	6.24710E-01
0.60422	1.23297	6.48720E-01
0.60742	1.23874	6.73090E-01
0.61061	1.24584	6.97710E-01
0.61381	1.25431	7.22490E-01
0.61700	1.26417	7.47330E-01
0.62019	1.27544	7.72140E-01
0.62339	1.28815	7.96860E-01
0.62658	1.30233	8.21390E-01
0.62977	1.31804	8.45640E-01
0.63296	1.33536	8.69500E-01
0.63616	1.35436	8.92720E-01
0.63935	1.37496	9.15040E-01
0.64254	1.39700	9.36250E-01
0.64573	1.42028	9.56240E-01
0.64892	1.44462	9.74930E-01
0.65211	1.46979	9.92330E-01
0.65530	1.49567	1.00855E+00
0.65849	1.52225	1.02369E+00
0.66168	1.54953	1.03777E+00
0.66487	1.57759	1.05083E+00
0.66805	1.60658	1.06282E+00
0.67124	1.63663	1.07341E+00
0.67443	1.66760	1.08224E+00
0.67762	1.69919	1.08908E+00
0.68080	1.73105	1.09377E+00
0.68399	1.76277	1.09625E+00
0.68718	1.79385	1.09655E+00
0.69036	1.82376	1.09512E+00
0.69355	1.85239	1.09251E+00
0.69673	1.87982	1.08912E+00
0.69992	1.90620	1.08529E+00
0.70310	1.93171	1.08127E+00
0.70628	1.95665	1.07724E+00
0.70947	1.98134	1.07321E+00
0.71265	2.00601	1.06903E+00
0.71583	2.03069	1.06457E+00
0.71902	2.05542	1.05973E+00
0.72220	2.08019	1.05444E+00
0.72538	2.10494	1.04866E+00
0.72856	2.12960	1.04238E+00
0.73174	2.15404	1.03576E+00
0.73492	2.17835	1.02906E+00
0.73810	2.20275	1.02244E+00
0.74128	2.22751	1.01604E+00
0.74446	2.25302	1.00993E+00
0.74763	2.27977	1.00411E+00
0.75081	2.30850	9.98470E-01
0.75399	2.34026	9.92160E-01
0.75716	2.37521	9.83640E-01
0.76034	2.41286	9.71700E-01
0.76352	2.45248	9.55380E-01
0.76669	2.49312	9.33940E-01
0.76987	2.53371	9.06780E-01
0.77304	2.57290	8.73460E-01
0.77621	2.60878	8.33840E-01
0.77939	2.63933	7.89270E-01
0.78256	2.66389	7.41520E-01
0.78573	2.68233	6.91970E-01
0.78890	2.69474	6.41830E-01
0.79207	2.70136	5.92150E-01
0.79524	2.70261	5.43900E-01
0.79841	2.69906	4.98010E-01
0.80158	2.69163	4.55300E-01
0.80475	2.68160	4.15920E-01
0.80792	2.66973	3.79560E-01
0.81109	2.65646	3.45930E-01
0.81425	2.64211	3.14840E-01
0.81742	2.62694	2.86090E-01
0.82058	2.61114	2.59510E-01
0.82375	2.59489	2.34970E-01
0.82691	2.57834	2.12340E-01
0.83008	2.56159	1.91480E-01
0.83324	2.54475	1.72300E-01
0.83641	2.52793	1.54670E-01
0.83957	2.51118	1.38500E-01
0.84273	2.49458	1.23700E-01
0.84589	2.47819	1.10170E-01
0.84905	2.46205	9.78200E-02
0.85221	2.44621	8.65700E-02
0.85537	2.43070	7.63300E-02
0.85853	2.41553	6.70300E-02
0.86169	2.40071	5.85900E-02
0.86484	2.38624	5.09600E-02
0.86800	2.37214	4.41100E-02
0.87116	2.35843	3.79800E-02
0.87431	2.34511	3.25300E-02
0.87747	2.33221	2.77100E-02
0.88062	2.31973	2.34800E-02
0.88377	2.30768	1.97900E-02
0.88693	2.29607	1.66000E-02
0.89008	2.28490	1.38600E-02
0.89323	2.27417	1.15400E-02
0.89638	2.26390	9.59000E-03
0.89953	2.25407	7.97000E-03
0.90268	2.24468	6.65000E-03
0.90583	2.23572	5.57000E-03
0.90898	2.22719	4.71000E-03
0.91212	2.21908	4.03000E-03
0.91527	2.21136	3.48000E-03
0.91842	2.20403	3.04000E-03
0.92156	2.19706	2.67000E-03
0.92470	2.19040	2.33000E-03
0.92785	2.18402	2.03000E-03
0.93099	2.17790	1.75000E-03
0.93413	2.17201	1.50000E-03
0.93728	2.16634	1.28000E-03
0.94042	2.16088	1.08000E-03
0.94356	2.15560	9.03000E-04
0.94669	2.15051	7.48000E-04
0.94983	2.14559	6.12000E-04
0.95297	2.14084	4.95000E-04
0.95611	2.13623	3.94000E-04
0.95924	2.13178	3.08000E-04
0.96238	2.12746	2.36000E-04
0.96551	2.12328	1.76000E-04
0.96865	2.11923	1.28000E-04
0.97178	2.11530	9.00000E-05
0.97491	2.11148	6.00000E-05
0.97804	2.10778	3.80000E-05
0.98117	2.10418	2.20000E-05
0.98430	2.10069	1.10000E-05
0.98743	2.09729	5.00000E-06
0.99056	2.09399	2.00000E-06
0.99369	2.09078	0
0.99681	2.08766	0
0.99994	2.08462	0
1.01681	2.06945	0
1.02367	2.06382	0
1.03052	2.05847	0
1.03738	2.05336	0
1.04423	2.04850	0
1.05109	2.04384	0
1.05795	2.03939	0
1.06480	2.03513	0
1.07166	2.03105	0
1.07851	2.02713	0
1.08537	2.02337	0
1.09223	2.01975	0
1.09908	2.01627	0
1.10594	2.01292	0
1.11280	2.00969	0
1.11965	2.00658	0
1.12651	2.00358	0
1.13337	2.00068	0
1.14022	1.99788	0
1.14708	1.99517	0
1.15394	1.99255	0
1.16080	1.99001	0
1.16766	1.98756	0
1.17452	1.98518	0
1.18138	1.98288	0
1.18824	1.98064	0
1.19510	1.97847	0
1.20196	1.97637	0
1.20883	1.97432	0
1.21569	1.97234	0
1.22255	1.97041	0
1.22942	1.96853	0
1.23628	1.96671	0
1.24315	1.96493	0
1.25001	1.96321	0
1.25688	1.96152	0
1.26375	1.95989	0
1.27062	1.95829	0
1.27749	1.95673	0
1.28436	1.95522	0
1.29123	1.95374	0
1.29810	1.95230	0
1.30497	1.95089	0
1.31185	1.94952	0
1.31872	1.94818	0
1.32560	1.94687	0
1.33248	1.94559	0
1.33935	1.94434	0
1.34623	1.94312	0
1.35311	1.94192	0
1.36000	1.94076	0
1.36688	1.93961	0
1.37376	1.93850	0
1.38065	1.93741	0
1.38753	1.93634	0
1.39442	1.93529	0
1.40131	1.93427	0
1.40820	1.93326	0
1.41509	1.93228	0
1.42199	1.93132	0
1.42888	1.93038	0
1.43578	1.92945	0
1.44267	1.92855	0
1.44957	1.92766	0
1.45647	1.92679	0
1.46337	1.92594	0
1.47028	1.92510	0
1.47718	1.92428	0
1.48409	1.92347	0
1.49100	1.92268	0
1.49791	1.92191	0
1.50482	1.92115	0
1.51173	1.92040	0
1.51865	1.91967	0
1.52556	1.91894	0
1.53248	1.91824	0
1.53940	1.91754	0
1.54633	1.91686	0
1.55325	1.91619	0
1.56018	1.91553	0
1.56711	1.91488	0
1.57404	1.91425	0
1.58097	1.91362	0
1.58790	1.91300	0
1.59484	1.91240	0
1.60178	1.91180	0
1.60872	1.91122	0
1.61566	1.91064	0
1.62260	1.91008	0
1.62955	1.90952	0
1.63650	1.90897	0
1.64345	1.90843	0
1.65040	1.90790	0
1.65736	1.90738	0
1.66432	1.90686	0
1.67128	1.90636	0
1.67824	1.90586	0
1.68520	1.90537	0
