Material: main / BN / Zotev-e
Optical constants. P. G. Zotev, Y. Wang, D. Andres-Penares, T. Severs-Millard, S. Randerson, X. Hu, L. Sortino, C. Louca, M. Brotons-Gisbert, T. Huq, S. Vezzoli, R. Sapienza, T. F. Krauss, B. D. Gerardot, A. I. Tartakovskii. Van der Waals materials for applications in nanophotonics. Laser and Photonics Rev. 17, 2200957 (2023) (Numerical data kindly provided by Panaiot Zotev)
Comments: Hexagonal boron nitride (hBN). Multilayer crystals. Out-of-plane (extraordinary ray, e). Room temperature.
wavelength (um)	n	k
0.3600	1.67083	0
0.3632	1.66764	0
0.3664	1.66456	0
0.3696	1.66159	0
0.3728	1.65872	0
0.3760	1.65595	0
0.3792	1.65327	0
0.3824	1.65069	0
0.3856	1.64818	0
0.3888	1.64576	0
0.3920	1.64342	0
0.3952	1.64115	0
0.3984	1.63895	0
0.4016	1.63681	0
0.4048	1.63474	0
0.4080	1.63274	0
0.4112	1.63079	0
0.4144	1.62890	0
0.4176	1.62707	0
0.4208	1.62528	0
0.4240	1.62355	0
0.4272	1.62187	0
0.4304	1.62023	0
0.4336	1.61864	0
0.4368	1.61709	0
0.4400	1.61558	0
0.4432	1.61412	0
0.4464	1.61269	0
0.4496	1.61130	0
0.4528	1.60994	0
0.4560	1.60862	0
0.4592	1.60733	0
0.4624	1.60607	0
0.4656	1.60485	0
0.4688	1.60365	0
0.4720	1.60249	0
0.4752	1.60135	0
0.4784	1.60024	0
0.4816	1.59915	0
0.4848	1.59809	0
0.4880	1.59706	0
0.4912	1.59605	0
0.4944	1.59506	0
0.4976	1.59409	0
0.5008	1.59315	0
0.5040	1.59222	0
0.5072	1.59132	0
0.5104	1.59044	0
0.5136	1.58958	0
0.5168	1.58873	0
0.5200	1.58790	0
0.5232	1.58709	0
0.5264	1.58630	0
0.5296	1.58552	0
0.5321	1.58493	0
0.5344	1.58439	0
0.5376	1.58365	0
0.5408	1.58293	0
0.5440	1.58222	0
0.5472	1.58153	0
0.5504	1.58085	0
0.5536	1.58018	0
0.5568	1.57953	0
0.5600	1.57889	0
0.5632	1.57826	0
0.5664	1.57764	0
0.5696	1.57704	0
0.5728	1.57644	0
0.5760	1.57586	0
0.5792	1.57529	0
0.5824	1.57473	0
0.5856	1.57418	0
0.5888	1.57364	0
0.5920	1.57311	0
0.5952	1.57258	0
0.5984	1.57207	0
0.6016	1.57157	0
0.6048	1.57108	0
0.6080	1.57059	0
0.6112	1.57011	0
0.6144	1.56964	0
0.6176	1.56918	0
0.6208	1.56873	0
0.6240	1.56829	0
0.6272	1.56785	0
0.6304	1.56742	0
0.6336	1.56699	0
0.6368	1.56658	0
0.6400	1.56617	0
0.6432	1.56577	0
0.6464	1.56537	0
0.6496	1.56498	0
0.6528	1.56460	0
0.6560	1.56422	0
0.6592	1.56385	0
0.6624	1.56348	0
0.6656	1.56312	0
0.6688	1.56277	0
0.6720	1.56242	0
0.6752	1.56208	0
0.6784	1.56174	0
0.6816	1.56141	0
0.6848	1.56108	0
0.6880	1.56076	0
0.6912	1.56044	0
0.6944	1.56013	0
0.6976	1.55982	0
0.7008	1.55951	0
0.7040	1.55921	0
0.7072	1.55892	0
0.7104	1.55863	0
0.7136	1.55834	0
0.7168	1.55806	0
0.7200	1.55778	0
0.7232	1.55751	0
0.7264	1.55723	0
0.7296	1.55697	0
0.7328	1.55670	0
0.7360	1.55645	0
0.7392	1.55619	0
0.7424	1.55594	0
0.7456	1.55569	0
0.7488	1.55544	0
0.7520	1.55520	0
0.7552	1.55496	0
0.7584	1.55473	0
0.7616	1.55450	0
0.7648	1.55427	0
0.7680	1.55404	0
0.7712	1.55382	0
0.7744	1.55360	0
0.7776	1.55338	0
0.7808	1.55317	0
0.7840	1.55295	0
0.7872	1.55274	0
0.7904	1.55254	0
0.7936	1.55234	0
0.7968	1.55213	0
0.8000	1.55194	0
0.8032	1.55174	0
0.8064	1.55155	0
0.8096	1.55136	0
0.8128	1.55117	0
0.8160	1.55098	0
0.8192	1.55080	0
0.8224	1.55062	0
0.8256	1.55044	0
0.8288	1.55026	0
0.8320	1.55008	0
0.8352	1.54991	0
0.8384	1.54974	0
0.8416	1.54957	0
0.8448	1.54940	0
0.8480	1.54924	0
0.8512	1.54908	0
0.8544	1.54892	0
0.8576	1.54876	0
0.8608	1.54860	0
0.8640	1.54844	0
0.8672	1.54829	0
0.8704	1.54814	0
0.8736	1.54799	0
0.8768	1.54784	0
0.8800	1.54769	0
0.8832	1.54755	0
0.8864	1.54741	0
0.8896	1.54726	0
0.8928	1.54712	0
0.8960	1.54698	0
0.8992	1.54685	0
0.9024	1.54671	0
0.9056	1.54658	0
0.9088	1.54645	0
0.9120	1.54632	0
0.9152	1.54619	0
0.9184	1.54606	0
0.9216	1.54593	0
0.9248	1.54581	0
0.9280	1.54568	0
0.9312	1.54556	0
0.9344	1.54544	0
0.9376	1.54532	0
0.9408	1.54520	0
0.9440	1.54508	0
0.9472	1.54496	0
0.9504	1.54485	0
0.9536	1.54474	0
0.9568	1.54462	0
0.9600	1.54451	0
0.9632	1.54440	0
0.9664	1.54429	0
0.9696	1.54418	0
0.9728	1.54408	0
0.9760	1.54397	0
0.9792	1.54387	0
0.9824	1.54376	0
0.9856	1.54366	0
0.9888	1.54356	0
0.9920	1.54346	0
0.9952	1.54336	0
0.9984	1.54326	0
