Material: main / BN / Zotev-o
Optical constants. P. G. Zotev, Y. Wang, D. Andres-Penares, T. Severs-Millard, S. Randerson, X. Hu, L. Sortino, C. Louca, M. Brotons-Gisbert, T. Huq, S. Vezzoli, R. Sapienza, T. F. Krauss, B. D. Gerardot, A. I. Tartakovskii. Van der Waals materials for applications in nanophotonics. Laser and Photonics Rev. 17, 2200957 (2023) (Numerical data kindly provided by Panaiot Zotev)
Comments: Hexagonal boron nitride (hBN). Multilayer crystals. In-plane (ordinary ray, o). Room temperature.
wavelength (um)	n	k
0.3600	2.16046	0
0.3632	2.15956	0
0.3664	2.15868	0
0.3696	2.15782	0
0.3728	2.15699	0
0.3760	2.15618	0
0.3792	2.15540	0
0.3824	2.15463	0
0.3856	2.15388	0
0.3888	2.15315	0
0.3920	2.15245	0
0.3952	2.15176	0
0.3984	2.15108	0
0.4016	2.15043	0
0.4048	2.14979	0
0.4080	2.14916	0
0.4112	2.14855	0
0.4144	2.14796	0
0.4176	2.14738	0
0.4208	2.14681	0
0.4240	2.14626	0
0.4272	2.14572	0
0.4304	2.14520	0
0.4336	2.14468	0
0.4368	2.14418	0
0.4400	2.14369	0
0.4432	2.14320	0
0.4464	2.14273	0
0.4496	2.14227	0
0.4528	2.14183	0
0.4560	2.14139	0
0.4592	2.14095	0
0.4624	2.14053	0
0.4656	2.14012	0
0.4688	2.13972	0
0.4720	2.13932	0
0.4752	2.13894	0
0.4784	2.13856	0
0.4816	2.13819	0
0.4848	2.13783	0
0.4880	2.13747	0
0.4912	2.13712	0
0.4944	2.13678	0
0.4976	2.13644	0
0.5008	2.13612	0
0.5040	2.13579	0
0.5072	2.13548	0
0.5104	2.13517	0
0.5136	2.13487	0
0.5168	2.13457	0
0.5200	2.13428	0
0.5232	2.13399	0
0.5264	2.13371	0
0.5296	2.13343	0
0.5321	2.13322	0
0.5344	2.13303	0
0.5376	2.13276	0
0.5408	2.13251	0
0.5440	2.13225	0
0.5472	2.13200	0
0.5504	2.13176	0
0.5536	2.13152	0
0.5568	2.13128	0
0.5600	2.13105	0
0.5632	2.13082	0
0.5664	2.13060	0
0.5696	2.13037	0
0.5728	2.13016	0
0.5760	2.12995	0
0.5792	2.12974	0
0.5824	2.12953	0
0.5856	2.12933	0
0.5888	2.12913	0
0.5920	2.12893	0
0.5952	2.12874	0
0.5984	2.12855	0
0.6016	2.12837	0
0.6048	2.12818	0
0.6080	2.12800	0
0.6112	2.12782	0
0.6144	2.12765	0
0.6176	2.12748	0
0.6208	2.12731	0
0.6240	2.12714	0
0.6272	2.12698	0
0.6304	2.12682	0
0.6336	2.12666	0
0.6368	2.12650	0
0.6400	2.12635	0
0.6432	2.12620	0
0.6464	2.12605	0
0.6496	2.12590	0
0.6528	2.12576	0
0.6560	2.12561	0
0.6592	2.12547	0
0.6624	2.12533	0
0.6656	2.12520	0
0.6688	2.12506	0
0.6720	2.12493	0
0.6752	2.12480	0
0.6784	2.12467	0
0.6816	2.12454	0
0.6848	2.12442	0
0.6880	2.12429	0
0.6912	2.12417	0
0.6944	2.12405	0
0.6976	2.12393	0
0.7008	2.12382	0
0.7040	2.12370	0
0.7072	2.12359	0
0.7104	2.12348	0
0.7136	2.12337	0
0.7168	2.12326	0
0.7200	2.12315	0
0.7232	2.12305	0
0.7264	2.12294	0
0.7296	2.12284	0
0.7328	2.12274	0
0.7360	2.12264	0
0.7392	2.12254	0
0.7424	2.12244	0
0.7456	2.12234	0
0.7488	2.12225	0
0.7520	2.12215	0
0.7552	2.12206	0
0.7584	2.12197	0
0.7616	2.12188	0
0.7648	2.12179	0
0.7680	2.12170	0
0.7712	2.12161	0
0.7744	2.12153	0
0.7776	2.12144	0
0.7808	2.12136	0
0.7840	2.12128	0
0.7872	2.12119	0
0.7904	2.12111	0
0.7936	2.12103	0
0.7968	2.12095	0
0.8000	2.12088	0
0.8032	2.12080	0
0.8064	2.12072	0
0.8096	2.12065	0
0.8128	2.12057	0
0.8160	2.12050	0
0.8192	2.12043	0
0.8224	2.12036	0
0.8256	2.12029	0
0.8288	2.12022	0
0.8320	2.12015	0
0.8352	2.12008	0
0.8384	2.12001	0
0.8416	2.11994	0
0.8448	2.11988	0
0.8480	2.11981	0
0.8512	2.11975	0
0.8544	2.11968	0
0.8576	2.11962	0
0.8608	2.11956	0
0.8640	2.11950	0
0.8672	2.11944	0
0.8704	2.11938	0
0.8736	2.11932	0
0.8768	2.11926	0
0.8800	2.11920	0
0.8832	2.11914	0
0.8864	2.11909	0
0.8896	2.11903	0
0.8928	2.11897	0
0.8960	2.11892	0
0.8992	2.11886	0
0.9024	2.11881	0
0.9056	2.11876	0
0.9088	2.11870	0
0.9120	2.11865	0
0.9152	2.11860	0
0.9184	2.11855	0
0.9216	2.11850	0
0.9248	2.11845	0
0.9280	2.11840	0
0.9312	2.11835	0
0.9344	2.11830	0
0.9376	2.11825	0
0.9408	2.11820	0
0.9440	2.11816	0
0.9472	2.11811	0
0.9504	2.11806	0
0.9536	2.11802	0
0.9568	2.11797	0
0.9600	2.11793	0
0.9632	2.11788	0
0.9664	2.11784	0
0.9696	2.11780	0
0.9728	2.11775	0
0.9760	2.11771	0
0.9792	2.11767	0
0.9824	2.11763	0
0.9856	2.11759	0
0.9888	2.11754	0
0.9920	2.11750	0
0.9952	2.11746	0
0.9984	2.11742	0
