Material: organic / C50H80N2O4 - ProSQ-C16 / Bernhardt-RR-SS-e
Optical constants. R. Bernhardt, L. Rieland, T. Wang, M. F. Schumacher, A. LÃ¼tzen, M. Schiek, P. H. M. van Loosdrecht. Ultrafast excitonic transitions in enantiopure and racemic squaraine thin films. Aggregate e698 (2024) (Numerical data kindly provided by Manuela Schiek)
Comments: Enantiomerically pure (R,R)-ProSQ-C16 or (S,S)-ProSQ-C16 (both have the same complex refractive index). Extraordinary ray (e).
wavelength (um)	n	k
0.30011	2.54276	9.09200E-02
0.30331	2.33590	6.27000E-03
0.30651	2.20488	0
0.30971	2.12360	0
0.31291	2.06393	0
0.31611	2.01693	0
0.31931	1.97825	0
0.32251	1.94535	0
0.32571	1.91659	0
0.32892	1.89077	0
0.33212	1.86676	6.40000E-05
0.33532	1.84353	1.03000E-03
0.33852	1.82118	4.23000E-03
0.34172	1.80131	1.05300E-02
0.34492	1.78591	1.83500E-02
0.34812	1.77489	2.51700E-02
0.35133	1.76626	2.89800E-02
0.35453	1.75743	3.02700E-02
0.35773	1.74738	3.04500E-02
0.36093	1.73589	3.07800E-02
0.36413	1.72326	3.23300E-02
0.36733	1.71010	3.59900E-02
0.37054	1.69765	4.25800E-02
0.37374	1.68818	5.17400E-02
0.37694	1.68284	6.11900E-02
0.38014	1.68114	6.86600E-02
0.38335	1.68112	7.23600E-02
0.38655	1.68008	7.28000E-02
0.38975	1.67698	7.16000E-02
0.39295	1.67172	7.02000E-02
0.39615	1.66503	6.97400E-02
0.39936	1.65785	7.03400E-02
0.40256	1.65061	7.18000E-02
0.40576	1.64355	7.39600E-02
0.40896	1.63686	7.66400E-02
0.41217	1.63065	7.96000E-02
0.41537	1.62491	8.26000E-02
0.41857	1.61956	8.54300E-02
0.42178	1.61438	8.78800E-02
0.42498	1.60906	8.99700E-02
0.42818	1.60343	9.18800E-02
0.43138	1.59743	9.37500E-02
0.43458	1.59108	9.57500E-02
0.43779	1.58449	9.79800E-02
0.44099	1.57776	1.00390E-01
0.44419	1.57092	1.02900E-01
0.44739	1.56390	1.05410E-01
0.45060	1.55661	1.07850E-01
0.45380	1.54881	1.10220E-01
0.45700	1.54027	1.12710E-01
0.46020	1.53096	1.15610E-01
0.46340	1.52094	1.19160E-01
0.46661	1.51035	1.23580E-01
0.46981	1.49948	1.29080E-01
0.47301	1.48878	1.35540E-01
0.47621	1.47842	1.42620E-01
0.47941	1.46838	1.50000E-01
0.48261	1.45852	1.57380E-01
0.48581	1.44857	1.64510E-01
0.48902	1.43805	1.71200E-01
0.49222	1.42639	1.77660E-01
0.49542	1.41326	1.84210E-01
0.49862	1.39842	1.91200E-01
0.50182	1.38163	1.98950E-01
0.50502	1.36265	2.07790E-01
0.50822	1.34106	2.18130E-01
0.51142	1.31627	2.30840E-01
0.51462	1.28819	2.47220E-01
0.51782	1.25710	2.68590E-01
0.52102	1.22361	2.96290E-01
0.52422	1.18866	3.31680E-01
0.52742	1.15360	3.76020E-01
0.53062	1.11994	4.30500E-01
0.53382	1.09002	4.96930E-01
0.53702	1.06808	5.76120E-01
0.54021	1.05885	6.66710E-01
0.54341	1.06625	7.65350E-01
0.54661	1.09256	8.67690E-01
0.54981	1.13880	9.69440E-01
0.55301	1.20583	1.06645E+00
0.55621	1.29400	1.15176E+00
0.55940	1.39802	1.21904E+00
0.56260	1.51197	1.26618E+00
0.56580	1.63101	1.29283E+00
0.56900	1.75120	1.29930E+00
0.57219	1.86910	1.28615E+00
0.57539	1.98131	1.25396E+00
0.57859	2.08373	1.20348E+00
0.58178	2.17092	1.13803E+00
0.58498	2.24108	1.06367E+00
0.58817	2.29469	9.84650E-01
0.59137	2.33263	9.04190E-01
0.59456	2.35594	8.24970E-01
0.59776	2.36579	7.49370E-01
0.60095	2.36359	6.79660E-01
0.60415	2.35116	6.18070E-01
0.60734	2.33119	5.66840E-01
0.61053	2.30804	5.26580E-01
0.61373	2.28465	4.95550E-01
0.61692	2.26257	4.72100E-01
0.62011	2.24281	4.54800E-01
0.62331	2.22605	4.42290E-01
0.62650	2.21269	4.33290E-01
0.62969	2.20285	4.26590E-01
0.63288	2.19646	4.21050E-01
0.63607	2.19317	4.15620E-01
0.63927	2.19232	4.09380E-01
0.64246	2.19293	4.01920E-01
0.64565	2.19435	3.93340E-01
0.64884	2.19620	3.83710E-01
0.65203	2.19818	3.73080E-01
0.65521	2.20006	3.61520E-01
0.65840	2.20163	3.49050E-01
0.66159	2.20268	3.35710E-01
0.66478	2.20302	3.21530E-01
0.66797	2.20241	3.06520E-01
0.67116	2.20059	2.90710E-01
0.67434	2.19718	2.74130E-01
0.67753	2.19162	2.57120E-01
0.68072	2.18364	2.40260E-01
0.68390	2.17319	2.24100E-01
0.68709	2.16029	2.09180E-01
0.69027	2.14506	1.95980E-01
0.69346	2.12769	1.85010E-01
0.69664	2.10844	1.76760E-01
0.69983	2.08766	1.71710E-01
0.70301	2.06580	1.70360E-01
0.70619	2.04346	1.73200E-01
0.70938	2.02142	1.80690E-01
0.71256	2.00083	1.93260E-01
0.71574	1.98338	2.10760E-01
0.71892	1.97038	2.32080E-01
0.72211	1.96252	2.55990E-01
0.72529	1.96015	2.81260E-01
0.72847	1.96330	3.06720E-01
0.73165	1.97179	3.31250E-01
0.73483	1.98524	3.53900E-01
0.73801	2.00310	3.73810E-01
0.74118	2.02473	3.90310E-01
0.74436	2.04941	4.02830E-01
0.74754	2.07637	4.10960E-01
0.75071	2.10479	4.14380E-01
0.75389	2.13378	4.12870E-01
0.75707	2.16228	4.06330E-01
0.76024	2.18901	3.95230E-01
0.76342	2.21331	3.80460E-01
0.76659	2.23488	3.62770E-01
0.76977	2.25354	3.42810E-01
0.77294	2.26924	3.21100E-01
0.77611	2.28195	2.98160E-01
0.77928	2.29171	2.74400E-01
0.78246	2.29859	2.50210E-01
0.78563	2.30267	2.25970E-01
0.78880	2.30405	2.02000E-01
0.79197	2.30287	1.78630E-01
0.79514	2.29929	1.56150E-01
0.79831	2.29349	1.34880E-01
0.80148	2.28571	1.15100E-01
0.80465	2.27625	9.71100E-02
0.80781	2.26559	8.11400E-02
0.81098	2.25425	6.71100E-02
0.81415	2.24251	5.48600E-02
0.81731	2.23060	4.42600E-02
0.82048	2.21869	3.51500E-02
0.82365	2.20691	2.74200E-02
0.82681	2.19539	2.09400E-02
0.82998	2.18420	1.55900E-02
0.83314	2.17344	1.12600E-02
0.83630	2.16315	7.82000E-03
0.83946	2.15340	5.18000E-03
0.84262	2.14420	3.22000E-03
0.84578	2.13559	1.83000E-03
0.84894	2.12758	9.19000E-04
0.85210	2.12017	3.76000E-04
0.85526	2.11335	1.06000E-04
0.85842	2.10708	1.10000E-05
0.86158	2.10132	0
0.86473	2.09598	0
0.86789	2.09098	0
0.87104	2.08627	0
0.87420	2.08182	0
0.87735	2.07760	0
0.88051	2.07359	0
0.88366	2.06976	0
0.88681	2.06610	0
0.88996	2.06260	0
0.89312	2.05924	0
0.89627	2.05601	0
0.89941	2.05291	0
0.90256	2.04992	0
0.90571	2.04704	0
0.90886	2.04427	0
0.91201	2.04158	0
0.91515	2.03899	0
0.91830	2.03648	0
0.92145	2.03404	0
0.92459	2.03169	0
0.92773	2.02940	0
0.93088	2.02718	0
0.93402	2.02503	0
0.93716	2.02294	0
0.94029	2.02090	0
0.94343	2.01892	0
0.94657	2.01699	0
0.94971	2.01512	0
0.95285	2.01329	0
0.95598	2.01151	0
0.95912	2.00977	0
0.96226	2.00807	0
0.96539	2.00642	0
0.96852	2.00480	0
0.97166	2.00323	0
0.97479	2.00169	0
0.97792	2.00018	0
0.98105	1.99871	0
0.98418	1.99727	0
0.98731	1.99586	0
0.99043	1.99448	0
0.99356	1.99313	0
0.99669	1.99181	0
0.99982	1.99052	0
1.01668	1.98397	0
1.02354	1.98149	0
1.03039	1.97912	0
1.03725	1.97683	0
1.04410	1.97464	0
1.05095	1.97253	0
1.05781	1.97050	0
1.06466	1.96853	0
1.07152	1.96664	0
1.07838	1.96482	0
1.08523	1.96305	0
1.09208	1.96135	0
1.09894	1.95970	0
1.10580	1.95810	0
1.11265	1.95655	0
1.11951	1.95506	0
1.12636	1.95361	0
1.13322	1.95220	0
1.14008	1.95083	0
1.14694	1.94951	0
1.15379	1.94822	0
1.16065	1.94697	0
1.16751	1.94575	0
1.17437	1.94457	0
1.18123	1.94342	0
1.18809	1.94230	0
1.19495	1.94121	0
1.20180	1.94015	0
1.20867	1.93911	0
1.21553	1.93811	0
1.22240	1.93713	0
1.22926	1.93617	0
1.23612	1.93524	0
1.24299	1.93433	0
1.24985	1.93344	0
1.25672	1.93257	0
1.26358	1.93172	0
1.27046	1.93090	0
1.27732	1.93009	0
1.28420	1.92930	0
1.29106	1.92853	0
1.29794	1.92777	0
1.30481	1.92704	0
1.31168	1.92631	0
1.31856	1.92561	0
1.32542	1.92492	0
1.33230	1.92424	0
1.33918	1.92358	0
1.34606	1.92293	0
1.35293	1.92230	0
1.35982	1.92168	0
1.36670	1.92107	0
1.37359	1.92047	0
1.38047	1.91989	0
1.38736	1.91931	0
1.39424	1.91875	0
1.40113	1.91820	0
1.40802	1.91766	0
1.41491	1.91713	0
1.42180	1.91661	0
1.42870	1.91610	0
1.43558	1.91560	0
1.44248	1.91511	0
1.44940	1.91463	0
1.45629	1.91415	0
1.46318	1.91369	0
1.47009	1.91323	0
1.47699	1.91278	0
1.48390	1.91234	0
1.49080	1.91191	0
1.49772	1.91148	0
1.50463	1.91107	0
1.51154	1.91066	0
1.51845	1.91025	0
1.52538	1.90986	0
1.53230	1.90946	0
1.53920	1.90908	0
1.54613	1.90870	0
1.55304	1.90833	0
1.55998	1.90797	0
1.56690	1.90761	0
1.57384	1.90725	0
1.58077	1.90691	0
1.58771	1.90656	0
1.59463	1.90623	0
1.60157	1.90590	0
1.60851	1.90557	0
1.61545	1.90525	0
1.62241	1.90493	0
1.62933	1.90462	0
1.63628	1.90431	0
1.64324	1.90401	0
1.65020	1.90371	0
1.65714	1.90342	0
1.66411	1.90313	0
1.67106	1.90285	0
1.67802	1.90257	0
1.68498	1.90229	0
