Material: organic / C50H80N2O4 - ProSQ-C16 / Bernhardt-rac-e
Optical constants. R. Bernhardt, L. Rieland, T. Wang, M. F. Schumacher, A. LÃ¼tzen, M. Schiek, P. H. M. van Loosdrecht. Ultrafast excitonic transitions in enantiopure and racemic squaraine thin films. Aggregate e698 (2024) (Numerical data kindly provided by Manuela Schiek)
Comments: Racemic mixture rac-ProSQ-C16. Extraordinary ray (e).
wavelength (um)	n	k
0.30011	1.56995	1.92800E-02
0.30331	1.55469	7.42000E-03
0.30651	1.54197	2.22000E-03
0.30971	1.53209	3.13000E-04
0.31291	1.52468	0
0.31611	1.51896	0
0.31931	1.51398	0
0.32251	1.50922	3.00000E-06
0.32571	1.50417	1.97000E-04
0.32892	1.49863	1.02000E-03
0.33212	1.49260	2.92000E-03
0.33532	1.48628	6.51000E-03
0.33852	1.48046	1.25000E-02
0.34172	1.47705	2.11500E-02
0.34492	1.47798	3.02000E-02
0.34812	1.48269	3.66000E-02
0.35133	1.48822	3.82100E-02
0.35453	1.49109	3.65400E-02
0.35773	1.49052	3.42900E-02
0.36093	1.48748	3.37400E-02
0.36413	1.48402	3.53300E-02
0.36733	1.48111	3.84000E-02
0.37054	1.47915	4.23100E-02
0.37374	1.47829	4.64900E-02
0.37694	1.47845	5.04300E-02
0.38014	1.47941	5.36800E-02
0.38335	1.48069	5.58800E-02
0.38655	1.48168	5.71200E-02
0.38975	1.48210	5.77000E-02
0.39295	1.48180	5.79000E-02
0.39615	1.48075	5.79900E-02
0.39936	1.47897	5.82000E-02
0.40256	1.47655	5.87700E-02
0.40576	1.47368	5.99100E-02
0.40896	1.47074	6.17600E-02
0.41217	1.46810	6.40600E-02
0.41537	1.46586	6.64700E-02
0.41857	1.46391	6.86600E-02
0.42178	1.46197	7.03600E-02
0.42498	1.45956	7.16300E-02
0.42818	1.45647	7.28100E-02
0.43138	1.45269	7.42200E-02
0.43458	1.44837	7.61500E-02
0.43779	1.44384	7.87800E-02
0.44099	1.43950	8.19500E-02
0.44419	1.43544	8.53600E-02
0.44739	1.43163	8.87300E-02
0.45060	1.42791	9.18400E-02
0.45380	1.42397	9.45300E-02
0.45700	1.41946	9.69600E-02
0.46020	1.41423	9.93500E-02
0.46340	1.40827	1.01940E-01
0.46661	1.40159	1.04920E-01
0.46981	1.39431	1.08460E-01
0.47301	1.38664	1.12600E-01
0.47621	1.37867	1.17270E-01
0.47941	1.37041	1.22380E-01
0.48261	1.36186	1.27880E-01
0.48581	1.35296	1.33710E-01
0.48902	1.34366	1.39800E-01
0.49222	1.33386	1.46070E-01
0.49542	1.32338	1.52380E-01
0.49862	1.31191	1.58650E-01
0.50182	1.29906	1.64810E-01
0.50502	1.28421	1.70840E-01
0.50822	1.26636	1.76830E-01
0.51142	1.24405	1.83830E-01
0.51462	1.21665	1.93740E-01
0.51782	1.18418	2.08540E-01
0.52102	1.14710	2.30310E-01
0.52422	1.10646	2.61270E-01
0.52742	1.06407	3.03730E-01
0.53062	1.02266	3.59830E-01
0.53382	0.98635	4.31440E-01
0.53702	0.96106	5.18490E-01
0.54021	0.95255	6.17770E-01
0.54341	0.96438	7.23830E-01
0.54661	0.99750	8.31040E-01
0.54981	1.05142	9.34850E-01
0.55301	1.12596	1.03151E+00
0.55621	1.22085	1.11462E+00
0.55940	1.33052	1.17848E+00
0.56260	1.44909	1.22146E+00
0.56580	1.57184	1.24349E+00
0.56900	1.69500	1.24504E+00
0.57219	1.81519	1.22670E+00
0.57539	1.92908	1.18905E+00
0.57859	2.03251	1.13280E+00
0.58178	2.11982	1.06129E+00
0.58498	2.18914	9.80820E-01
0.58817	2.24097	8.95850E-01
0.59137	2.27623	8.09730E-01
0.59456	2.29596	7.25270E-01
0.59776	2.30138	6.45020E-01
0.60095	2.29392	5.71440E-01
0.60415	2.27551	5.07060E-01
0.60734	2.24911	4.54450E-01
0.61053	2.21970	4.14450E-01
0.61373	2.19078	3.85020E-01
0.61692	2.16421	3.64190E-01
0.62011	2.14121	3.50110E-01
0.62331	2.12256	3.41050E-01
0.62650	2.10862	3.35300E-01
0.62969	2.09944	3.31260E-01
0.63288	2.09470	3.27390E-01
0.63607	2.09372	3.22290E-01
0.63927	2.09531	3.14760E-01
0.64246	2.09771	3.04460E-01
0.64565	2.09983	2.91950E-01
0.64884	2.10111	2.77730E-01
0.65203	2.10117	2.62230E-01
0.65521	2.09978	2.45840E-01
0.65840	2.09678	2.28890E-01
0.66159	2.09207	2.11690E-01
0.66478	2.08558	1.94540E-01
0.66797	2.07727	1.77690E-01
0.67116	2.06712	1.61390E-01
0.67434	2.05511	1.45900E-01
0.67753	2.04120	1.31480E-01
0.68072	2.02544	1.18490E-01
0.68390	2.00790	1.07240E-01
0.68709	1.98872	9.80600E-02
0.69027	1.96807	9.13000E-02
0.69346	1.94620	8.72900E-02
0.69664	1.92337	8.63800E-02
0.69983	1.89997	8.89200E-02
0.70301	1.87644	9.52700E-02
0.70619	1.85339	1.05770E-01
0.70938	1.83157	1.20740E-01
0.71256	1.81205	1.40440E-01
0.71574	1.79640	1.64610E-01
0.71892	1.78581	1.92090E-01
0.72211	1.78089	2.21580E-01
0.72529	1.78187	2.51800E-01
0.72847	1.78868	2.81540E-01
0.73165	1.80099	3.09670E-01
0.73483	1.81828	3.35250E-01
0.73801	1.83989	3.57500E-01
0.74118	1.86509	3.75810E-01
0.74436	1.89310	3.89710E-01
0.74754	1.92309	3.98880E-01
0.75071	1.95426	4.03100E-01
0.75389	1.98571	4.02230E-01
0.75707	2.01639	3.96240E-01
0.76024	2.04510	3.85650E-01
0.76342	2.07121	3.71390E-01
0.76659	2.09444	3.54220E-01
0.76977	2.11466	3.34770E-01
0.77294	2.13184	3.13600E-01
0.77611	2.14597	2.91190E-01
0.77928	2.15710	2.67970E-01
0.78246	2.16531	2.44330E-01
0.78563	2.17069	2.20630E-01
0.78880	2.17335	1.97200E-01
0.79197	2.17344	1.74350E-01
0.79514	2.17112	1.52380E-01
0.79831	2.16656	1.31580E-01
0.80148	2.16002	1.12250E-01
0.80465	2.15180	9.46800E-02
0.80781	2.14236	7.90800E-02
0.81098	2.13221	6.53900E-02
0.81415	2.12165	5.34500E-02
0.81731	2.11089	4.31000E-02
0.82048	2.10010	3.42300E-02
0.82365	2.08942	2.67000E-02
0.82681	2.07896	2.03800E-02
0.82998	2.06881	1.51700E-02
0.83314	2.05904	1.09500E-02
0.83630	2.04973	7.61000E-03
0.83946	2.04091	5.04000E-03
0.84262	2.03261	3.13000E-03
0.84578	2.02488	1.78000E-03
0.84894	2.01770	8.93000E-04
0.85210	2.01110	3.65000E-04
0.85526	2.00505	1.03000E-04
0.85842	1.99952	1.10000E-05
0.86158	1.99448	0
0.86473	1.98983	0
0.86789	1.98551	0
0.87104	1.98145	0
0.87420	1.97763	0
0.87735	1.97402	0
0.88051	1.97060	0
0.88366	1.96736	0
0.88681	1.96426	0
0.88996	1.96131	0
0.89312	1.95849	0
0.89627	1.95579	0
0.89941	1.95320	0
0.90256	1.95071	0
0.90571	1.94832	0
0.90886	1.94602	0
0.91201	1.94381	0
0.91515	1.94167	0
0.91830	1.93961	0
0.92145	1.93762	0
0.92459	1.93570	0
0.92773	1.93383	0
0.93088	1.93203	0
0.93402	1.93028	0
0.93716	1.92859	0
0.94029	1.92694	0
0.94343	1.92535	0
0.94657	1.92380	0
0.94971	1.92229	0
0.95285	1.92083	0
0.95598	1.91940	0
0.95912	1.91802	0
0.96226	1.91667	0
0.96539	1.91535	0
0.96852	1.91407	0
0.97166	1.91282	0
0.97479	1.91160	0
0.97792	1.91041	0
0.98105	1.90925	0
0.98418	1.90812	0
0.98731	1.90701	0
0.99043	1.90593	0
0.99356	1.90488	0
0.99669	1.90385	0
0.99982	1.90284	0
1.01668	1.89775	0
1.02354	1.89584	0
1.03039	1.89401	0
1.03725	1.89226	0
1.04410	1.89059	0
1.05095	1.88898	0
1.05781	1.88743	0
1.06466	1.88594	0
1.07152	1.88451	0
1.07838	1.88313	0
1.08523	1.88180	0
1.09208	1.88052	0
1.09894	1.87929	0
1.10580	1.87810	0
1.11265	1.87694	0
1.11951	1.87583	0
1.12636	1.87475	0
1.13322	1.87371	0
1.14008	1.87270	0
1.14694	1.87172	0
1.15379	1.87078	0
1.16065	1.86986	0
1.16751	1.86897	0
1.17437	1.86810	0
1.18123	1.86726	0
1.18809	1.86645	0
1.19495	1.86565	0
1.20180	1.86488	0
1.20867	1.86414	0
1.21553	1.86341	0
1.22240	1.86270	0
1.22926	1.86201	0
1.23612	1.86134	0
1.24299	1.86068	0
1.24985	1.86005	0
1.25672	1.85943	0
1.26358	1.85882	0
1.27046	1.85823	0
1.27732	1.85766	0
1.28420	1.85709	0
1.29106	1.85654	0
1.29794	1.85601	0
1.30481	1.85549	0
1.31168	1.85498	0
1.31856	1.85448	0
1.32542	1.85399	0
1.33230	1.85351	0
1.33918	1.85305	0
1.34606	1.85259	0
1.35293	1.85215	0
1.35982	1.85171	0
1.36670	1.85129	0
1.37359	1.85087	0
1.38047	1.85046	0
1.38736	1.85006	0
1.39424	1.84967	0
1.40113	1.84929	0
1.40802	1.84891	0
1.41491	1.84854	0
1.42180	1.84818	0
1.42870	1.84783	0
1.43558	1.84748	0
1.44248	1.84714	0
1.44940	1.84681	0
1.45629	1.84648	0
1.46318	1.84616	0
1.47009	1.84585	0
1.47699	1.84554	0
1.48390	1.84524	0
1.49080	1.84494	0
1.49772	1.84465	0
1.50463	1.84436	0
1.51154	1.84408	0
1.51845	1.84380	0
1.52538	1.84353	0
1.53230	1.84326	0
1.53920	1.84300	0
1.54613	1.84275	0
1.55304	1.84249	0
1.55998	1.84224	0
1.56690	1.84200	0
1.57384	1.84176	0
1.58077	1.84153	0
1.58771	1.84129	0
1.59463	1.84107	0
1.60157	1.84084	0
1.60851	1.84062	0
1.61545	1.84040	0
1.62241	1.84019	0
1.62933	1.83998	0
1.63628	1.83977	0
1.64324	1.83957	0
1.65020	1.83937	0
1.65714	1.83917	0
1.66411	1.83898	0
1.67106	1.83878	0
1.67802	1.83860	0
1.68498	1.83841	0
