Material: organic / C50H80N2O4 - ProSQ-C16 / Bernhardt-rac-o
Optical constants. R. Bernhardt, L. Rieland, T. Wang, M. F. Schumacher, A. LÃ¼tzen, M. Schiek, P. H. M. van Loosdrecht. Ultrafast excitonic transitions in enantiopure and racemic squaraine thin films. Aggregate e698 (2024) (Numerical data kindly provided by Manuela Schiek)
Comments: Racemic mixture rac-ProSQ-C16. Ordinary ray (o).
wavelength (um)	n	k
0.30011	1.51247	1.20500E-02
0.30331	1.50299	6.47000E-03
0.30651	1.49419	3.78000E-03
0.30971	1.48664	2.96000E-03
0.31291	1.48037	3.01000E-03
0.31611	1.47491	3.34000E-03
0.31931	1.46987	3.89000E-03
0.32251	1.46505	4.65000E-03
0.32571	1.46027	5.71000E-03
0.32892	1.45550	7.24000E-03
0.33212	1.45070	9.40000E-03
0.33532	1.44603	1.25400E-02
0.33852	1.44204	1.69700E-02
0.34172	1.43975	2.23700E-02
0.34492	1.43952	2.75300E-02
0.34812	1.44083	3.13300E-02
0.35133	1.44244	3.34400E-02
0.35453	1.44361	3.43900E-02
0.35773	1.44413	3.46800E-02
0.36093	1.44402	3.47300E-02
0.36413	1.44337	3.47600E-02
0.36733	1.44231	3.49800E-02
0.37054	1.44107	3.55300E-02
0.37374	1.43989	3.63400E-02
0.37694	1.43885	3.72900E-02
0.38014	1.43801	3.82900E-02
0.38335	1.43742	3.92100E-02
0.38655	1.43702	3.98800E-02
0.38975	1.43672	4.01800E-02
0.39295	1.43626	3.99900E-02
0.39615	1.43536	3.94800E-02
0.39936	1.43394	3.89500E-02
0.40256	1.43208	3.86400E-02
0.40576	1.43005	3.87600E-02
0.40896	1.42817	3.91900E-02
0.41217	1.42656	3.96900E-02
0.41537	1.42517	4.00300E-02
0.41857	1.42385	4.00300E-02
0.42178	1.42233	3.96800E-02
0.42498	1.42045	3.91500E-02
0.42818	1.41821	3.85900E-02
0.43138	1.41564	3.81400E-02
0.43458	1.41288	3.78900E-02
0.43779	1.41006	3.77800E-02
0.44099	1.40722	3.77200E-02
0.44419	1.40434	3.76100E-02
0.44739	1.40138	3.73800E-02
0.45060	1.39820	3.69900E-02
0.45380	1.39469	3.65100E-02
0.45700	1.39082	3.60200E-02
0.46020	1.38657	3.55700E-02
0.46340	1.38190	3.52500E-02
0.46661	1.37683	3.51100E-02
0.46981	1.37134	3.52600E-02
0.47301	1.36548	3.57900E-02
0.47621	1.35931	3.68000E-02
0.47941	1.35296	3.83800E-02
0.48261	1.34661	4.06100E-02
0.48581	1.34056	4.34300E-02
0.48902	1.33500	4.65500E-02
0.49222	1.32993	4.96400E-02
0.49542	1.32525	5.24400E-02
0.49862	1.32072	5.46800E-02
0.50182	1.31599	5.61300E-02
0.50502	1.31039	5.67900E-02
0.50822	1.30342	5.71900E-02
0.51142	1.29496	5.79100E-02
0.51462	1.28507	5.94800E-02
0.51782	1.27393	6.24200E-02
0.52102	1.26191	6.72000E-02
0.52422	1.24964	7.42600E-02
0.52742	1.23804	8.35400E-02
0.53062	1.22766	9.45700E-02
0.53382	1.21882	1.06890E-01
0.53702	1.21165	1.20030E-01
0.54021	1.20622	1.33530E-01
0.54341	1.20244	1.47000E-01
0.54661	1.20014	1.60030E-01
0.54981	1.19904	1.72380E-01
0.55301	1.19887	1.83910E-01
0.55621	1.19944	1.94540E-01
0.55940	1.20052	2.04180E-01
0.56260	1.20190	2.12760E-01
0.56580	1.20335	2.20260E-01
0.56900	1.20461	2.26630E-01
0.57219	1.20536	2.31900E-01
0.57539	1.20521	2.36260E-01
0.57859	1.20395	2.40080E-01
0.58178	1.20152	2.43650E-01
0.58498	1.19792	2.47260E-01
0.58817	1.19318	2.51180E-01
0.59137	1.18737	2.55640E-01
0.59456	1.18064	2.60850E-01
0.59776	1.17315	2.67030E-01
0.60095	1.16517	2.74290E-01
0.60415	1.15697	2.82610E-01
0.60734	1.14869	2.91890E-01
0.61053	1.14043	3.02060E-01
0.61373	1.13225	3.13040E-01
0.61692	1.12418	3.24790E-01
0.62011	1.11626	3.37240E-01
0.62331	1.10849	3.50330E-01
0.62650	1.10086	3.64020E-01
0.62969	1.09334	3.78270E-01
0.63288	1.08587	3.93090E-01
0.63607	1.07842	4.08480E-01
0.63927	1.07095	4.24460E-01
0.64246	1.06342	4.41070E-01
0.64565	1.05581	4.58330E-01
0.64884	1.04804	4.76280E-01
0.65203	1.04007	4.94970E-01
0.65521	1.03181	5.14470E-01
0.65840	1.02315	5.34860E-01
0.66159	1.01395	5.56270E-01
0.66478	1.00397	5.78920E-01
0.66797	0.99311	6.03290E-01
0.67116	0.98146	6.29850E-01
0.67434	0.96921	6.58990E-01
0.67753	0.95659	6.91080E-01
0.68072	0.94388	7.26420E-01
0.68390	0.93130	7.65280E-01
0.68709	0.91906	8.07960E-01
0.69027	0.90723	8.54770E-01
0.69346	0.89573	9.06210E-01
0.69664	0.88408	9.63170E-01
0.69983	0.87085	1.02785E+00
0.70301	0.85659	1.11051E+00
0.70619	0.86369	1.21350E+00
0.70938	0.89033	1.31087E+00
0.71256	0.92120	1.41431E+00
0.71574	0.97159	1.52798E+00
0.71892	1.04454	1.64446E+00
0.72211	1.14747	1.76120E+00
0.72529	1.28729	1.86286E+00
0.72847	1.45957	1.92887E+00
0.73165	1.64487	1.94217E+00
0.73483	1.80744	1.89934E+00
0.73801	1.92581	1.84156E+00
0.74118	2.03139	1.77991E+00
0.74436	2.11004	1.69039E+00
0.74754	2.11960	1.58901E+00
0.75071	2.03264	1.56565E+00
0.75389	1.97391	1.71533E+00
0.75707	2.11075	1.94968E+00
0.76024	2.43451	2.02708E+00
0.76342	2.67361	1.92012E+00
0.76659	2.83292	1.86671E+00
0.76977	3.08719	1.79976E+00
0.77294	3.35250	1.59633E+00
0.77611	3.52997	1.27932E+00
0.77928	3.55626	9.28120E-01
0.78246	3.46540	6.40360E-01
0.78563	3.32129	4.37460E-01
0.78880	3.17165	3.13810E-01
0.79197	3.04211	2.41930E-01
0.79514	2.93819	1.99410E-01
0.79831	2.85620	1.69660E-01
0.80148	2.78961	1.45080E-01
0.80465	2.73234	1.22620E-01
0.80781	2.68114	1.02310E-01
0.81098	2.63443	8.41900E-02
0.81415	2.59133	6.82200E-02
0.81731	2.55124	5.43200E-02
0.82048	2.51380	4.24000E-02
0.82365	2.47875	3.23200E-02
0.82681	2.44592	2.39500E-02
0.82998	2.41517	1.71500E-02
0.83314	2.38642	1.17700E-02
0.83630	2.35958	7.64000E-03
0.83946	2.33459	4.61000E-03
0.84262	2.31139	2.51000E-03
0.84578	2.28990	1.17000E-03
0.84894	2.27007	4.22000E-04
0.85210	2.25179	8.80000E-05
0.85526	2.23496	3.00000E-06
0.85842	2.21942	0
0.86158	2.20496	0
0.86473	2.19142	0
0.86789	2.17870	0
0.87104	2.16672	0
0.87420	2.15540	0
0.87735	2.14468	0
0.88051	2.13451	0
0.88366	2.12485	0
0.88681	2.11565	0
0.88996	2.10688	0
0.89312	2.09851	0
0.89627	2.09050	0
0.89941	2.08285	0
0.90256	2.07551	0
0.90571	2.06847	0
0.90886	2.06172	0
0.91201	2.05523	0
0.91515	2.04898	0
0.91830	2.04297	0
0.92145	2.03718	0
0.92459	2.03160	0
0.92773	2.02622	0
0.93088	2.02102	0
0.93402	2.01599	0
0.93716	2.01114	0
0.94029	2.00644	0
0.94343	2.00189	0
0.94657	1.99749	0
0.94971	1.99322	0
0.95285	1.98908	0
0.95598	1.98507	0
0.95912	1.98118	0
0.96226	1.97739	0
0.96539	1.97372	0
0.96852	1.97015	0
0.97166	1.96668	0
0.97479	1.96331	0
0.97792	1.96002	0
0.98105	1.95683	0
0.98418	1.95372	0
0.98731	1.95069	0
0.99043	1.94773	0
0.99356	1.94486	0
0.99669	1.94205	0
0.99982	1.93931	0
1.01668	1.92562	0
1.02354	1.92052	0
1.03039	1.91567	0
1.03725	1.91104	0
1.04410	1.90663	0
1.05095	1.90241	0
1.05781	1.89837	0
1.06466	1.89451	0
1.07152	1.89081	0
1.07838	1.88726	0
1.08523	1.88385	0
1.09208	1.88058	0
1.09894	1.87744	0
1.10580	1.87441	0
1.11265	1.87149	0
1.11951	1.86869	0
1.12636	1.86598	0
1.13322	1.86337	0
1.14008	1.86085	0
1.14694	1.85841	0
1.15379	1.85606	0
1.16065	1.85379	0
1.16751	1.85159	0
1.17437	1.84946	0
1.18123	1.84740	0
1.18809	1.84540	0
1.19495	1.84346	0
1.20180	1.84159	0
1.20867	1.83977	0
1.21553	1.83800	0
1.22240	1.83628	0
1.22926	1.83462	0
1.23612	1.83300	0
1.24299	1.83142	0
1.24985	1.82989	0
1.25672	1.82840	0
1.26358	1.82696	0
1.27046	1.82555	0
1.27732	1.82417	0
1.28420	1.82284	0
1.29106	1.82153	0
1.29794	1.82026	0
1.30481	1.81902	0
1.31168	1.81782	0
1.31856	1.81664	0
1.32542	1.81549	0
1.33230	1.81437	0
1.33918	1.81328	0
1.34606	1.81221	0
1.35293	1.81116	0
1.35982	1.81014	0
1.36670	1.80915	0
1.37359	1.80817	0
1.38047	1.80722	0
1.38736	1.80629	0
1.39424	1.80538	0
1.40113	1.80449	0
1.40802	1.80362	0
1.41491	1.80276	0
1.42180	1.80193	0
1.42870	1.80111	0
1.43558	1.80031	0
1.44248	1.79953	0
1.44940	1.79876	0
1.45629	1.79801	0
1.46318	1.79727	0
1.47009	1.79654	0
1.47699	1.79584	0
1.48390	1.79514	0
1.49080	1.79446	0
1.49772	1.79379	0
1.50463	1.79314	0
1.51154	1.79249	0
1.51845	1.79186	0
1.52538	1.79124	0
1.53230	1.79063	0
1.53920	1.79004	0
1.54613	1.78945	0
1.55304	1.78888	0
1.55998	1.78831	0
1.56690	1.78776	0
1.57384	1.78721	0
1.58077	1.78668	0
1.58771	1.78615	0
1.59463	1.78563	0
1.60157	1.78512	0
1.60851	1.78462	0
1.61545	1.78413	0
1.62241	1.78365	0
1.62933	1.78317	0
1.63628	1.78271	0
1.64324	1.78225	0
1.65020	1.78180	0
1.65714	1.78135	0
1.66411	1.78091	0
1.67106	1.78048	0
1.67802	1.78006	0
1.68498	1.77964	0
