Material: organic / C50H80N2O4 - ProSQ-C16 / Bernhardt-RR-SS-o
Optical constants. R. Bernhardt, L. Rieland, T. Wang, M. F. Schumacher, A. LÃ¼tzen, M. Schiek, P. H. M. van Loosdrecht. Ultrafast excitonic transitions in enantiopure and racemic squaraine thin films. Aggregate e698 (2024) (Numerical data kindly provided by Manuela Schiek)
Comments: Enantiomerically pure (R,R)-ProSQ-C16 or (S,S)-ProSQ-C16 (both have the same complex refractive index). Ordinary ray (o).
wavelength (um)	n	k
0.30011	1.71644	2.86000E-02
0.30331	1.69328	2.13200E-02
0.30651	1.67321	1.89700E-02
0.30971	1.65675	1.94300E-02
0.31291	1.64371	2.10000E-02
0.31611	1.63315	2.22500E-02
0.31931	1.62358	2.30200E-02
0.32251	1.61450	2.39100E-02
0.32571	1.60610	2.53100E-02
0.32892	1.59860	2.69900E-02
0.33212	1.59187	2.86600E-02
0.33532	1.58555	3.02600E-02
0.33852	1.57951	3.20900E-02
0.34172	1.57395	3.43900E-02
0.34492	1.56933	3.70100E-02
0.34812	1.56576	3.94300E-02
0.35133	1.56299	4.12200E-02
0.35453	1.56055	4.21700E-02
0.35773	1.55805	4.23700E-02
0.36093	1.55520	4.19100E-02
0.36413	1.55157	4.10800E-02
0.36733	1.54702	4.05200E-02
0.37054	1.54186	4.08600E-02
0.37374	1.53689	4.24900E-02
0.37694	1.53301	4.48800E-02
0.38014	1.53037	4.71900E-02
0.38335	1.52864	4.86700E-02
0.38655	1.52694	4.90200E-02
0.38975	1.52467	4.86900E-02
0.39295	1.52171	4.81800E-02
0.39615	1.51818	4.79200E-02
0.39936	1.51446	4.81000E-02
0.40256	1.51079	4.85900E-02
0.40576	1.50727	4.92500E-02
0.40896	1.50390	4.99900E-02
0.41217	1.50066	5.06900E-02
0.41537	1.49750	5.13200E-02
0.41857	1.49439	5.18300E-02
0.42178	1.49128	5.22000E-02
0.42498	1.48808	5.23900E-02
0.42818	1.48470	5.24400E-02
0.43138	1.48112	5.24100E-02
0.43458	1.47731	5.23500E-02
0.43779	1.47326	5.23000E-02
0.44099	1.46900	5.22800E-02
0.44419	1.46454	5.23100E-02
0.44739	1.45985	5.23700E-02
0.45060	1.45494	5.24700E-02
0.45380	1.44973	5.26100E-02
0.45700	1.44417	5.28100E-02
0.46020	1.43818	5.31900E-02
0.46340	1.43179	5.38600E-02
0.46661	1.42504	5.49400E-02
0.46981	1.41803	5.65300E-02
0.47301	1.41091	5.86900E-02
0.47621	1.40392	6.13400E-02
0.47941	1.39712	6.42700E-02
0.48261	1.39049	6.73200E-02
0.48581	1.38394	7.03300E-02
0.48902	1.37729	7.31400E-02
0.49222	1.37021	7.56700E-02
0.49542	1.36234	7.81400E-02
0.49862	1.35353	8.08800E-02
0.50182	1.34374	8.41900E-02
0.50502	1.33297	8.83600E-02
0.50822	1.32129	9.36600E-02
0.51142	1.30875	1.00370E-01
0.51462	1.29540	1.08890E-01
0.51782	1.28150	1.19710E-01
0.52102	1.26749	1.33330E-01
0.52422	1.25402	1.50160E-01
0.52742	1.24192	1.70540E-01
0.53062	1.23237	1.94680E-01
0.53382	1.22705	2.22460E-01
0.53702	1.22799	2.52290E-01
0.54021	1.23568	2.81690E-01
0.54341	1.24963	3.08490E-01
0.54661	1.26873	3.31040E-01
0.54981	1.29159	3.48120E-01
0.55301	1.31657	3.58940E-01
0.55621	1.34187	3.63040E-01
0.55940	1.36512	3.60660E-01
0.56260	1.38468	3.53500E-01
0.56580	1.40002	3.43120E-01
0.56900	1.41105	3.30760E-01
0.57219	1.41785	3.17460E-01
0.57539	1.42064	3.04120E-01
0.57859	1.41975	2.91540E-01
0.58178	1.41570	2.80440E-01
0.58498	1.40926	2.71420E-01
0.58817	1.40135	2.64480E-01
0.59137	1.39244	2.59380E-01
0.59456	1.38284	2.55940E-01
0.59776	1.37276	2.54000E-01
0.60095	1.36238	2.53430E-01
0.60415	1.35181	2.54110E-01
0.60734	1.34115	2.55910E-01
0.61053	1.33048	2.58730E-01
0.61373	1.31983	2.62470E-01
0.61692	1.30925	2.67050E-01
0.62011	1.29875	2.72380E-01
0.62331	1.28834	2.78410E-01
0.62650	1.27802	2.85050E-01
0.62969	1.26777	2.92250E-01
0.63288	1.25756	2.99950E-01
0.63607	1.24735	3.08090E-01
0.63927	1.23708	3.16640E-01
0.64246	1.22667	3.25560E-01
0.64565	1.21602	3.34820E-01
0.64884	1.20499	3.44490E-01
0.65203	1.19350	3.54640E-01
0.65521	1.18147	3.65360E-01
0.65840	1.16885	3.76730E-01
0.66159	1.15557	3.88850E-01
0.66478	1.14157	4.01820E-01
0.66797	1.12678	4.15760E-01
0.67116	1.11111	4.30800E-01
0.67434	1.09446	4.47080E-01
0.67753	1.07669	4.64790E-01
0.68072	1.05760	4.84200E-01
0.68390	1.03692	5.05820E-01
0.68709	1.01472	5.30420E-01
0.69027	0.99131	5.58680E-01
0.69346	0.96721	5.91200E-01
0.69664	0.94306	6.28470E-01
0.69983	0.91963	6.70800E-01
0.70301	0.89774	7.18320E-01
0.70619	0.87819	7.70920E-01
0.70938	0.86164	8.28340E-01
0.71256	0.84853	8.90190E-01
0.71574	0.83904	9.56140E-01
0.71892	0.83293	1.02611E+00
0.72211	0.82966	1.10141E+00
0.72529	0.83249	1.18439E+00
0.72847	0.84437	1.27044E+00
0.73165	0.86050	1.35965E+00
0.73483	0.88523	1.45613E+00
0.73801	0.92097	1.55455E+00
0.74118	0.96435	1.65498E+00
0.74436	1.01655	1.76001E+00
0.74754	1.08139	1.87009E+00
0.75071	1.16033	1.98160E+00
0.75389	1.25123	2.09789E+00
0.75707	1.36694	2.22082E+00
0.76024	1.50626	2.33188E+00
0.76342	1.65243	2.44811E+00
0.76659	1.85001	2.57959E+00
0.76977	2.08900	2.66149E+00
0.77294	2.30408	2.77092E+00
0.77611	2.70311	2.95958E+00
0.77928	3.33094	2.90421E+00
0.78246	3.89640	2.51135E+00
0.78563	4.21736	1.88316E+00
0.78880	4.16011	1.25476E+00
0.79197	3.92057	8.95230E-01
0.79514	3.74259	6.93880E-01
0.79831	3.59372	5.26660E-01
0.80148	3.44407	3.98870E-01
0.80465	3.30223	3.13770E-01
0.80781	3.18180	2.64870E-01
0.81098	3.08985	2.32390E-01
0.81415	3.01548	2.02360E-01
0.81731	2.95079	1.74340E-01
0.82048	2.89271	1.48620E-01
0.82365	2.83959	1.25280E-01
0.82681	2.79039	1.04320E-01
0.82998	2.74448	8.57100E-02
0.83314	2.70141	6.93500E-02
0.83630	2.66088	5.51400E-02
0.83946	2.62271	4.29700E-02
0.84262	2.58673	3.27000E-02
0.84578	2.55286	2.41900E-02
0.84894	2.52100	1.72800E-02
0.85210	2.49110	1.18200E-02
0.85526	2.46312	7.64000E-03
0.85842	2.43700	4.59000E-03
0.86158	2.41268	2.48000E-03
0.86473	2.39012	1.14000E-03
0.86789	2.36925	4.01000E-04
0.87104	2.34997	7.90000E-05
0.87420	2.33217	2.00000E-06
0.87735	2.31569	0
0.88051	2.30032	0
0.88366	2.28590	0
0.88681	2.27233	0
0.88996	2.25952	0
0.89312	2.24740	0
0.89627	2.23591	0
0.89941	2.22500	0
0.90256	2.21461	0
0.90571	2.20471	0
0.90886	2.19526	0
0.91201	2.18623	0
0.91515	2.17759	0
0.91830	2.16932	0
0.92145	2.16138	0
0.92459	2.15376	0
0.92773	2.14644	0
0.93088	2.13940	0
0.93402	2.13262	0
0.93716	2.12609	0
0.94029	2.11979	0
0.94343	2.11372	0
0.94657	2.10786	0
0.94971	2.10219	0
0.95285	2.09671	0
0.95598	2.09141	0
0.95912	2.08628	0
0.96226	2.08131	0
0.96539	2.07650	0
0.96852	2.07183	0
0.97166	2.06730	0
0.97479	2.06291	0
0.97792	2.05864	0
0.98105	2.05449	0
0.98418	2.05046	0
0.98731	2.04655	0
0.99043	2.04274	0
0.99356	2.03903	0
0.99669	2.03542	0
0.99982	2.03190	0
1.01668	2.01439	0
1.02354	2.00791	0
1.03039	2.00175	0
1.03725	1.99590	0
1.04410	1.99032	0
1.05095	1.98500	0
1.05781	1.97993	0
1.06466	1.97508	0
1.07152	1.97044	0
1.07838	1.96600	0
1.08523	1.96174	0
1.09208	1.95765	0
1.09894	1.95374	0
1.10580	1.94997	0
1.11265	1.94635	0
1.11951	1.94286	0
1.12636	1.93950	0
1.13322	1.93627	0
1.14008	1.93315	0
1.14694	1.93014	0
1.15379	1.92723	0
1.16065	1.92442	0
1.16751	1.92171	0
1.17437	1.91908	0
1.18123	1.91654	0
1.18809	1.91409	0
1.19495	1.91170	0
1.20180	1.90940	0
1.20867	1.90716	0
1.21553	1.90499	0
1.22240	1.90288	0
1.22926	1.90084	0
1.23612	1.89885	0
1.24299	1.89692	0
1.24985	1.89504	0
1.25672	1.89322	0
1.26358	1.89145	0
1.27046	1.88972	0
1.27732	1.88804	0
1.28420	1.88640	0
1.29106	1.88481	0
1.29794	1.88326	0
1.30481	1.88174	0
1.31168	1.88027	0
1.31856	1.87883	0
1.32542	1.87742	0
1.33230	1.87606	0
1.33918	1.87472	0
1.34606	1.87342	0
1.35293	1.87214	0
1.35982	1.87090	0
1.36670	1.86968	0
1.37359	1.86849	0
1.38047	1.86733	0
1.38736	1.86620	0
1.39424	1.86509	0
1.40113	1.86400	0
1.40802	1.86294	0
1.41491	1.86190	0
1.42180	1.86088	0
1.42870	1.85988	0
1.43558	1.85891	0
1.44248	1.85795	0
1.44940	1.85702	0
1.45629	1.85610	0
1.46318	1.85520	0
1.47009	1.85432	0
1.47699	1.85346	0
1.48390	1.85261	0
1.49080	1.85178	0
1.49772	1.85097	0
1.50463	1.85017	0
1.51154	1.84939	0
1.51845	1.84862	0
1.52538	1.84786	0
1.53230	1.84712	0
1.53920	1.84640	0
1.54613	1.84568	0
1.55304	1.84498	0
1.55998	1.84429	0
1.56690	1.84362	0
1.57384	1.84295	0
1.58077	1.84230	0
1.58771	1.84166	0
1.59463	1.84103	0
1.60157	1.84041	0
1.60851	1.83980	0
1.61545	1.83921	0
1.62241	1.83862	0
1.62933	1.83804	0
1.63628	1.83747	0
1.64324	1.83691	0
1.65020	1.83636	0
1.65714	1.83582	0
1.66411	1.83529	0
1.67106	1.83476	0
1.67802	1.83425	0
1.68498	1.83374	0
