Material: perovskite / CH3NH3PbCl3 / Brennan
Optical constants. M. C. Brennan, C. L. McCleese, L. M. Loftus, J. Lipp, M. Febbraro, H. J. Hall, D. B. Turner, M. J. Carter, P. R. Stevenson, T. A. Grusenmeyer. Optically transparent lead halide perovskite polycrystalline ceramics. ACS Appl. Mater. Interfaces 16, 15084â€“15095 (2024) (Numerical data kindly provided by Michael Brennan)
Comments: Crystal orientation: ; Solution-grown single crystal; Room temperature.
wavelength (um)	n	k
0.200	1.75347	0.60363
0.206	1.70921	0.53311
0.212	1.63408	0.56380
0.218	1.62411	0.64400
0.224	1.67571	0.70395
0.230	1.73032	0.73845
0.236	1.80029	0.75971
0.242	1.86873	0.75251
0.248	1.91841	0.73676
0.254	1.96062	0.72698
0.260	2.00529	0.73306
0.266	2.10480	0.74370
0.272	2.23382	0.64696
0.278	2.24741	0.51471
0.284	2.21472	0.43156
0.290	2.18181	0.38464
0.296	2.15623	0.35390
0.302	2.13602	0.33175
0.308	2.12001	0.31489
0.314	2.10759	0.30087
0.320	2.09703	0.28846
0.326	2.08782	0.27797
0.332	2.07982	0.26919
0.338	2.07359	0.26121
0.344	2.06787	0.25398
0.350	2.06216	0.24765
0.356	2.05654	0.24240
0.362	2.05059	0.23865
0.368	2.04472	0.23653
0.374	2.03715	0.23638
0.380	2.02422	0.24005
0.386	1.99748	0.25838
0.392	1.95488	0.34661
0.398	2.07719	0.58138
0.404	2.52428	0.32044
0.410	2.33981	0.06806
0.416	2.23769	0.03204
0.422	2.18360	0.02156
0.428	2.15382	0.01153
0.434	2.11786	1.80E-04
0.440	2.09193	1.40E-06
0.446	2.07234	1.00E-06
0.452	2.05631	1.00E-06
0.458	2.04272	1.00E-06
0.464	2.03093	1.00E-06
0.470	2.02054	1.00E-06
0.476	2.01127	1.00E-06
0.482	2.00292	1.00E-06
0.488	1.99533	1.00E-06
0.494	1.98839	1.00E-06
0.500	1.98201	1.00E-06
0.506	1.97611	1.00E-06
0.512	1.97064	1.00E-06
0.518	1.96555	1.00E-06
0.524	1.96079	1.00E-06
0.530	1.95634	1.00E-06
0.536	1.95215	1.00E-06
0.542	1.94821	1.00E-06
0.548	1.94449	1.00E-06
0.554	1.94098	1.00E-06
0.560	1.93765	1.00E-06
0.566	1.93449	1.00E-06
0.572	1.93149	1.00E-06
0.578	1.92864	1.00E-06
0.584	1.92592	1.00E-06
0.590	1.92332	1.00E-06
0.596	1.92085	1.00E-06
0.602	1.91848	1.00E-06
0.608	1.91622	1.00E-06
0.614	1.91405	1.00E-06
0.620	1.91197	1.00E-06
0.626	1.90997	1.00E-06
0.632	1.90805	1.00E-06
0.638	1.90621	1.00E-06
0.644	1.90444	1.00E-06
0.650	1.90273	1.00E-06
0.656	1.90109	1.00E-06
0.662	1.89951	1.00E-06
0.668	1.89798	1.00E-06
0.674	1.89651	1.00E-06
0.680	1.89509	1.00E-06
0.686	1.89371	1.00E-06
0.692	1.89239	1.00E-06
0.698	1.89110	1.00E-06
0.704	1.88986	1.00E-06
0.710	1.88866	1.00E-06
0.716	1.88749	1.00E-06
0.722	1.88636	1.00E-06
0.728	1.88527	1.00E-06
0.734	1.88421	1.00E-06
0.740	1.88318	1.00E-06
0.746	1.88218	1.00E-06
0.752	1.88121	1.00E-06
0.758	1.88027	1.00E-06
0.764	1.87936	1.00E-06
0.770	1.87847	1.00E-06
0.776	1.87760	1.00E-06
0.782	1.87676	1.00E-06
0.788	1.87594	1.00E-06
0.794	1.87515	1.00E-06
0.800	1.87437	1.00E-06
0.806	1.87362	1.00E-06
0.812	1.87289	1.00E-06
0.818	1.87217	1.00E-06
0.824	1.87147	1.00E-06
0.830	1.87079	1.00E-06
0.836	1.87013	1.00E-06
0.842	1.86948	1.00E-06
0.848	1.86885	1.00E-06
0.854	1.86823	1.00E-06
0.860	1.86763	1.00E-06
0.866	1.86705	1.00E-06
0.872	1.86647	1.00E-06
0.878	1.86591	1.00E-06
0.884	1.86537	1.00E-06
0.890	1.86483	1.00E-06
0.896	1.86431	1.00E-06
0.902	1.86380	1.00E-06
0.908	1.86330	1.00E-06
0.914	1.86281	1.00E-06
0.920	1.86233	1.00E-06
0.926	1.86187	1.00E-06
0.932	1.86141	1.00E-06
0.938	1.86096	1.00E-06
0.944	1.86052	1.00E-06
0.950	1.86009	1.00E-06
0.956	1.85967	1.00E-06
0.962	1.85926	1.00E-06
0.968	1.85886	1.00E-06
0.974	1.85846	1.00E-06
0.980	1.85807	1.00E-06
0.986	1.85769	1.00E-06
0.992	1.85732	1.00E-06
0.998	1.85696	1.00E-06
1.004	1.85660	1.00E-06
1.010	1.85625	1.00E-06
1.016	1.85590	1.00E-06
1.022	1.85557	1.00E-06
1.028	1.85523	1.00E-06
1.034	1.85491	1.00E-06
1.040	1.85459	1.00E-06
1.046	1.85428	1.00E-06
1.052	1.85397	1.00E-06
1.058	1.85366	1.00E-06
1.064	1.85337	1.00E-06
1.070	1.85308	1.00E-06
1.076	1.85279	2.00E-06
1.082	1.85251	2.00E-06
1.088	1.85223	2.00E-06
1.094	1.85196	1.00E-06
1.100	1.85169	1.00E-06
1.106	1.85143	1.00E-06
1.112	1.85117	1.00E-06
1.118	1.85092	1.00E-06
1.124	1.85067	1.00E-06
1.130	1.85042	1.00E-06
1.136	1.85018	1.60E-06
1.142	1.84994	1.60E-06
1.148	1.84971	1.80E-06
1.154	1.84948	3.00E-06
1.160	1.84925	2.00E-06
1.166	1.84903	2.00E-06
1.172	1.84881	1.00E-06
1.178	1.84859	1.00E-06
1.184	1.84838	1.00E-06
1.190	1.84817	1.00E-06
1.196	1.84796	1.00E-06
1.202	1.84776	1.00E-06
1.208	1.84756	1.00E-06
1.214	1.84736	1.00E-06
1.220	1.84717	1.00E-06
1.226	1.84698	1.00E-06
1.232	1.84679	1.00E-06
1.238	1.84660	1.00E-06
1.244	1.84642	1.00E-06
1.250	1.84624	1.80E-06
1.256	1.84606	2.20E-06
1.262	1.84588	3.00E-06
1.268	1.84571	3.80E-06
1.274	1.84554	4.00E-06
1.280	1.84537	5.00E-06
1.286	1.84520	5.00E-06
1.292	1.84504	5.00E-06
1.298	1.84488	4.00E-06
1.304	1.84472	4.00E-06
1.310	1.84456	4.00E-06
1.316	1.84441	4.00E-06
1.322	1.84425	4.00E-06
1.328	1.84410	4.40E-06
1.334	1.84395	5.60E-06
1.340	1.84380	5.20E-06
1.346	1.84366	5.60E-06
1.352	1.84351	5.40E-06
1.358	1.84337	7.00E-06
1.364	1.84323	6.80E-06
1.370	1.84310	5.00E-06
1.376	1.84296	4.80E-06
1.382	1.84282	4.00E-06
1.388	1.84269	4.20E-06
1.394	1.84256	5.00E-06
1.400	1.84243	4.00E-06
1.406	1.84230	3.20E-06
1.412	1.84217	3.80E-06
1.418	1.84204	3.20E-06
1.424	1.84192	3.00E-06
1.430	1.84179	2.20E-06
1.436	1.84167	2.00E-06
1.442	1.84155	2.00E-06
1.448	1.84143	2.00E-06
1.454	1.84131	2.00E-06
1.460	1.84119	2.00E-06
1.466	1.84108	2.00E-06
1.472	1.84096	2.00E-06
1.478	1.84085	2.60E-06
1.484	1.84073	3.00E-06
1.490	1.84062	3.00E-06
1.496	1.84051	3.00E-06
1.502	1.84040	3.60E-06
1.508	1.84029	4.40E-06
1.514	1.84018	5.40E-06
1.520	1.84007	6.80E-06
1.526	1.83997	8.60E-06
1.532	1.83986	1.12E-05
1.538	1.83975	1.46E-05
1.544	1.83965	1.92E-05
1.550	1.83954	2.60E-05
1.556	1.83944	3.48E-05
1.562	1.83934	4.60E-05
1.568	1.83925	5.80E-05
1.574	1.83916	7.04E-05
1.580	1.83908	7.98E-05
1.586	1.83900	8.46E-05
1.592	1.83892	8.28E-05
1.598	1.83883	7.68E-05
1.604	1.83875	6.90E-05
1.610	1.83866	6.14E-05
1.616	1.83857	5.58E-05
1.622	1.83848	5.14E-05
1.628	1.83839	4.74E-05
1.634	1.83830	4.44E-05
1.640	1.83822	4.26E-05
1.646	1.83813	4.18E-05
1.652	1.83804	3.76E-05
1.658	1.83796	4.20E-05
1.664	1.83788	3.18E-05
1.670	1.83779	2.42E-05
1.676	1.83770	2.30E-05
1.682	1.83761	2.40E-05
1.688	1.83753	2.74E-05
1.694	1.83745	3.08E-05
1.700	1.83737	2.60E-05
1.706	1.83729	2.34E-05
1.712	1.83721	2.50E-05
1.718	1.83713	2.10E-05
1.724	1.83705	1.70E-05
1.730	1.83696	1.60E-05
1.736	1.83688	1.60E-05
1.742	1.83680	1.80E-05
1.748	1.83672	2.00E-05
1.754	1.83665	1.80E-05
1.760	1.83657	1.60E-05
1.766	1.83649	1.50E-05
1.772	1.83641	1.40E-05
1.778	1.83633	1.40E-05
1.784	1.83626	1.40E-05
1.790	1.83618	1.48E-05
1.796	1.83610	1.52E-05
1.802	1.83603	1.60E-05
1.808	1.83595	1.56E-05
1.814	1.83588	1.42E-05
1.820	1.83580	1.34E-05
1.826	1.83573	1.44E-05
1.832	1.83565	1.50E-05
1.838	1.83558	1.46E-05
1.844	1.83550	1.50E-05
1.850	1.83543	1.64E-05
1.856	1.83535	1.70E-05
1.862	1.83528	1.70E-05
1.868	1.83521	1.62E-05
1.874	1.83513	1.58E-05
1.880	1.83506	1.50E-05
1.886	1.83498	1.40E-05
1.892	1.83491	1.40E-05
1.898	1.83483	1.40E-05
1.904	1.83476	1.40E-05
1.910	1.83468	1.46E-05
1.916	1.83460	1.66E-05
1.922	1.83453	1.70E-05
1.928	1.83445	1.76E-05
1.934	1.83437	1.86E-05
1.940	1.83429	2.08E-05
1.946	1.83421	2.54E-05
1.952	1.83413	2.92E-05
1.958	1.83405	3.22E-05
1.964	1.83397	3.62E-05
1.970	1.83389	4.06E-05
1.976	1.83381	4.46E-05
1.982	1.83372	4.82E-05
1.988	1.83364	5.18E-05
1.994	1.83355	5.58E-05
2.000	1.83346	6.10E-05
2.006	1.83337	6.80E-05
2.012	1.83327	7.58E-05
2.018	1.83317	8.60E-05
2.024	1.83307	1.01E-04
2.030	1.83296	1.19E-04
2.036	1.83285	1.44E-04
2.042	1.83273	1.79E-04
2.048	1.83261	2.31E-04
2.054	1.83250	2.93E-04
2.060	1.83240	3.60E-04
2.066	1.83231	4.31E-04
2.072	1.83222	5.05E-04
2.078	1.83214	5.81E-04
2.084	1.83206	6.60E-04
2.090	1.83199	7.40E-04
2.096	1.83193	8.23E-04
2.102	1.83187	9.06E-04
2.108	1.83182	9.90E-04
2.114	1.83177	0.00107
2.120	1.83173	0.00116
2.126	1.83169	0.00124
2.132	1.83166	0.00133
2.138	1.83163	0.00141
2.144	1.83161	0.00149
2.150	1.83159	0.00157
2.156	1.83158	0.00165
2.162	1.83158	0.00173
2.168	1.83157	0.00180
2.174	1.83158	0.00187
2.180	1.83158	0.00194
2.186	1.83159	0.00201
2.192	1.83161	0.00207
2.198	1.83163	0.00213
2.204	1.83165	0.00218
2.210	1.83168	0.00223
2.216	1.83170	0.00228
2.222	1.83174	0.00232
2.228	1.83177	0.00236
2.234	1.83181	0.00239
2.240	1.83185	0.00242
2.246	1.83189	0.00245
2.252	1.83193	0.00246
2.258	1.83198	0.00248
2.264	1.83202	0.00249
2.270	1.83207	0.00249
2.276	1.83212	0.00248
2.282	1.83216	0.00248
2.288	1.83221	0.00246
2.294	1.83226	0.00244
2.300	1.83230	0.00241
2.306	1.83235	0.00238
2.312	1.83239	0.00234
2.318	1.83244	0.00229
2.324	1.83248	0.00224
2.330	1.83251	0.00218
2.336	1.83255	0.00211
2.342	1.83258	0.00204
2.348	1.83261	0.00196
2.354	1.83263	0.00188
2.360	1.83264	0.00178
2.366	1.83265	0.00168
2.372	1.83265	0.00157
2.378	1.83265	0.00146
2.384	1.83263	0.00134
2.390	1.83260	0.00121
2.396	1.83256	0.00107
2.402	1.83251	9.25E-04
2.408	1.83242	7.73E-04
2.414	1.83231	6.19E-04
2.420	1.83214	4.97E-04
2.426	1.83196	4.34E-04
2.432	1.83182	3.94E-04
2.438	1.83169	3.57E-04
2.444	1.83156	3.35E-04
2.450	1.83145	3.19E-04
2.456	1.83134	2.96E-04
2.462	1.83124	2.64E-04
2.468	1.83112	2.32E-04
2.474	1.83100	2.15E-04
2.480	1.83090	2.03E-04
2.486	1.83079	1.84E-04
2.492	1.83067	1.68E-04
2.498	1.83055	1.62E-04
