Material: main / ZrO2 / Synowicki-UV
Optical constants. R.A. Synowicki and T. E. Tiwald. Optical properties of bulk c-ZrO2, c-MgO and a-As2S3 determined by variable angle spectroscopic ellipsometry. Thin Solid Films 455-456, 248-255 (2004) Calculation scripts (Python): Synowicki 2004 - ZrO2 -- IR.py Synowicki 2004 - Aux funcs.py
Comments: Data generated from oscillator model.
wavelength (um)	n	k
1.3010e-01	2.1062e+00	1.8631e+00
1.3075e-01	2.1342e+00	1.8554e+00
1.3141e-01	2.1622e+00	1.8465e+00
1.3207e-01	2.1901e+00	1.8366e+00
1.3275e-01	2.2178e+00	1.8255e+00
1.3343e-01	2.2452e+00	1.8132e+00
1.3411e-01	2.2722e+00	1.7998e+00
1.3480e-01	2.2988e+00	1.7853e+00
1.3550e-01	2.3247e+00	1.7697e+00
1.3621e-01	2.3500e+00	1.7530e+00
1.3693e-01	2.3744e+00	1.7354e+00
1.3765e-01	2.3980e+00	1.7168e+00
1.3838e-01	2.4205e+00	1.6973e+00
1.3912e-01	2.4420e+00	1.6771e+00
1.3986e-01	2.4624e+00	1.6563e+00
1.4062e-01	2.4815e+00	1.6350e+00
1.4138e-01	2.4994e+00	1.6133e+00
1.4215e-01	2.5161e+00	1.5914e+00
1.4293e-01	2.5315e+00	1.5695e+00
1.4372e-01	2.5457e+00	1.5476e+00
1.4451e-01	2.5587e+00	1.5259e+00
1.4532e-01	2.5705e+00	1.5046e+00
1.4613e-01	2.5814e+00	1.4839e+00
1.4695e-01	2.5914e+00	1.4637e+00
1.4779e-01	2.6006e+00	1.4443e+00
1.4863e-01	2.6092e+00	1.4257e+00
1.4948e-01	2.6174e+00	1.4079e+00
1.5034e-01	2.6253e+00	1.3910e+00
1.5121e-01	2.6331e+00	1.3750e+00
1.5209e-01	2.6409e+00	1.3598e+00
1.5299e-01	2.6491e+00	1.3453e+00
1.5389e-01	2.6576e+00	1.3315e+00
1.5480e-01	2.6667e+00	1.3183e+00
1.5572e-01	2.6764e+00	1.3054e+00
1.5666e-01	2.6869e+00	1.2928e+00
1.5761e-01	2.6982e+00	1.2802e+00
1.5856e-01	2.7103e+00	1.2674e+00
1.5953e-01	2.7232e+00	1.2543e+00
1.6052e-01	2.7369e+00	1.2406e+00
1.6151e-01	2.7513e+00	1.2262e+00
1.6251e-01	2.7662e+00	1.2108e+00
1.6353e-01	2.7815e+00	1.1944e+00
1.6457e-01	2.7970e+00	1.1768e+00
1.6561e-01	2.8124e+00	1.1580e+00
1.6667e-01	2.8277e+00	1.1378e+00
1.6774e-01	2.8424e+00	1.1164e+00
1.6882e-01	2.8565e+00	1.0938e+00
1.6992e-01	2.8697e+00	1.0701e+00
1.7104e-01	2.8817e+00	1.0455e+00
1.7217e-01	2.8925e+00	1.0201e+00
1.7331e-01	2.9019e+00	9.9418e-01
1.7447e-01	2.9099e+00	9.6803e-01
1.7564e-01	2.9165e+00	9.4191e-01
1.7683e-01	2.9218e+00	9.1609e-01
1.7804e-01	2.9258e+00	8.9082e-01
1.7926e-01	2.9289e+00	8.6634e-01
1.8051e-01	2.9315e+00	8.4277e-01
1.8176e-01	2.9337e+00	8.1989e-01
1.8304e-01	2.9356e+00	7.9780e-01
1.8433e-01	2.9375e+00	7.7657e-01
1.8564e-01	2.9398e+00	7.5615e-01
1.8697e-01	2.9426e+00	7.3640e-01
1.8832e-01	2.9464e+00	7.1706e-01
1.8969e-01	2.9513e+00	6.9775e-01
1.9108e-01	2.9576e+00	6.7801e-01
1.9249e-01	2.9654e+00	6.5724e-01
1.9392e-01	2.9743e+00	6.3484e-01
1.9537e-01	2.9842e+00	6.1019e-01
1.9685e-01	2.9943e+00	5.8274e-01
1.9834e-01	3.0040e+00	5.5212e-01
1.9986e-01	3.0124e+00	5.1817e-01
2.0141e-01	3.0183e+00	4.8107e-01
2.0297e-01	3.0210e+00	4.4130e-01
2.0457e-01	3.0196e+00	3.9961e-01
2.0618e-01	3.0137e+00	3.5699e-01
2.0782e-01	3.0031e+00	3.1449e-01
2.0949e-01	2.9879e+00	2.7313e-01
2.1119e-01	2.9686e+00	2.3383e-01
2.1291e-01	2.9458e+00	1.9726e-01
2.1466e-01	2.9201e+00	1.6390e-01
2.1645e-01	2.8923e+00	1.3403e-01
2.1826e-01	2.8631e+00	1.0771e-01
2.2010e-01	2.8332e+00	8.4909e-02
2.2197e-01	2.8029e+00	6.5464e-02
2.2387e-01	2.7728e+00	4.9169e-02
2.2581e-01	2.7433e+00	3.5783e-02
2.2778e-01	2.7145e+00	2.5053e-02
2.2979e-01	2.6868e+00	1.6733e-02
2.3183e-01	2.6605e+00	1.0590e-02
2.3391e-01	2.6357e+00	6.2463e-03
2.3603e-01	2.6126e+00	3.1754e-03
2.3818e-01	2.5908e+00	1.2071e-03
2.4038e-01	2.5706e+00	2.0010e-04
2.4261e-01	2.5519e+00	0.0000e+00
2.4489e-01	2.5349e+00	0.0000e+00
2.4721e-01	2.5190e+00	0.0000e+00
2.4957e-01	2.5041e+00	0.0000e+00
2.5198e-01	2.4900e+00	0.0000e+00
2.5444e-01	2.4767e+00	0.0000e+00
2.5695e-01	2.4640e+00	0.0000e+00
2.5950e-01	2.4518e+00	0.0000e+00
2.6211e-01	2.4402e+00	0.0000e+00
2.6477e-01	2.4291e+00	0.0000e+00
2.6749e-01	2.4185e+00	0.0000e+00
2.7026e-01	2.4082e+00	0.0000e+00
2.7309e-01	2.3984e+00	0.0000e+00
2.7597e-01	2.3889e+00	0.0000e+00
2.7892e-01	2.3797e+00	0.0000e+00
2.8194e-01	2.3709e+00	0.0000e+00
2.8502e-01	2.3623e+00	0.0000e+00
2.8817e-01	2.3541e+00	0.0000e+00
2.9139e-01	2.3461e+00	0.0000e+00
2.9468e-01	2.3383e+00	0.0000e+00
2.9804e-01	2.3308e+00	0.0000e+00
3.0149e-01	2.3236e+00	0.0000e+00
3.0501e-01	2.3165e+00	0.0000e+00
3.0862e-01	2.3097e+00	0.0000e+00
3.1231e-01	2.3030e+00	0.0000e+00
3.1610e-01	2.2966e+00	0.0000e+00
3.1997e-01	2.2903e+00	0.0000e+00
3.2395e-01	2.2842e+00	0.0000e+00
3.2802e-01	2.2783e+00	0.0000e+00
3.3220e-01	2.2726e+00	0.0000e+00
3.3648e-01	2.2670e+00	0.0000e+00
3.4088e-01	2.2615e+00	0.0000e+00
3.4539e-01	2.2562e+00	0.0000e+00
3.5003e-01	2.2510e+00	0.0000e+00
3.5479e-01	2.2460e+00	0.0000e+00
3.5968e-01	2.2411e+00	0.0000e+00
3.6470e-01	2.2364e+00	0.0000e+00
3.6987e-01	2.2317e+00	0.0000e+00
3.7519e-01	2.2272e+00	0.0000e+00
3.8067e-01	2.2228e+00	0.0000e+00
3.8630e-01	2.2185e+00	0.0000e+00
3.9211e-01	2.2143e+00	0.0000e+00
3.9809e-01	2.2102e+00	0.0000e+00
4.0426e-01	2.2063e+00	0.0000e+00
4.1062e-01	2.2024e+00	0.0000e+00
4.1719e-01	2.1986e+00	0.0000e+00
4.2397e-01	2.1949e+00	0.0000e+00
4.3097e-01	2.1914e+00	0.0000e+00
4.3821e-01	2.1879e+00	0.0000e+00
4.4570e-01	2.1845e+00	0.0000e+00
4.5345e-01	2.1811e+00	0.0000e+00
4.6147e-01	2.1779e+00	0.0000e+00
4.6978e-01	2.1748e+00	0.0000e+00
4.7839e-01	2.1717e+00	0.0000e+00
4.8733e-01	2.1687e+00	0.0000e+00
4.9660e-01	2.1658e+00	0.0000e+00
5.0624e-01	2.1630e+00	0.0000e+00
5.1625e-01	2.1602e+00	0.0000e+00
5.2668e-01	2.1575e+00	0.0000e+00
5.3753e-01	2.1549e+00	0.0000e+00
5.4884e-01	2.1523e+00	0.0000e+00
5.6063e-01	2.1499e+00	0.0000e+00
5.7294e-01	2.1475e+00	0.0000e+00
5.8581e-01	2.1451e+00	0.0000e+00
5.9926e-01	2.1429e+00	0.0000e+00
6.1335e-01	2.1406e+00	0.0000e+00
6.2812e-01	2.1385e+00	0.0000e+00
6.4361e-01	2.1364e+00	0.0000e+00
6.5989e-01	2.1344e+00	0.0000e+00
6.7701e-01	2.1324e+00	0.0000e+00
6.9505e-01	2.1305e+00	0.0000e+00
7.1407e-01	2.1287e+00	0.0000e+00
7.3417e-01	2.1269e+00	0.0000e+00
7.5543e-01	2.1252e+00	0.0000e+00
7.7795e-01	2.1235e+00	0.0000e+00
8.0186e-01	2.1219e+00	0.0000e+00
8.2729e-01	2.1203e+00	0.0000e+00
8.5438e-01	2.1188e+00	0.0000e+00
8.8331e-01	2.1174e+00	0.0000e+00
9.1426e-01	2.1160e+00	0.0000e+00
9.4747e-01	2.1147e+00	0.0000e+00
9.8317e-01	2.1134e+00	0.0000e+00
1.0217e+00	2.1121e+00	0.0000e+00
1.0633e+00	2.1109e+00	0.0000e+00
1.1085e+00	2.1098e+00	0.0000e+00
1.1577e+00	2.1087e+00	0.0000e+00
1.2114e+00	2.1077e+00	0.0000e+00
1.2704e+00	2.1067e+00	0.0000e+00
1.3355e+00	2.1058e+00	0.0000e+00
1.4075e+00	2.1049e+00	0.0000e+00
1.4878e+00	2.1040e+00	0.0000e+00
1.5777e+00	2.1032e+00	0.0000e+00
1.6793e+00	2.1025e+00	0.0000e+00
1.7948e+00	2.1018e+00	0.0000e+00
1.9274e+00	2.1012e+00	0.0000e+00
2.0811e+00	2.1006e+00	0.0000e+00
2.2616e+00	2.1000e+00	0.0000e+00
2.4762e+00	2.0995e+00	0.0000e+00
2.7359e+00	2.0990e+00	0.0000e+00
3.0564e+00	2.0986e+00	0.0000e+00
3.4619e+00	2.0983e+00	0.0000e+00
3.9916e+00	2.0979e+00	0.0000e+00
4.7126e+00	2.0977e+00	0.0000e+00
5.7515e+00	2.0974e+00	0.0000e+00
7.3780e+00	2.0972e+00	0.0000e+00
1.0287e+01	2.0971e+00	0.0000e+00
1.6984e+01	2.0970e+00	0.0000e+00
