Material: main / SiO2 / Franta-300C
Optical constants. D. Franta, D. Nečas, I. Ohlídal. A. Giglia. Optical characterization of SiO2 thin films using universal dispersion model over wide spectral range. Proc. SPIE 9890, 989014 (2016) (Numerical data kindly provided by Daniel Franta)
Comments: Film SiO2; Deposited by e-beam evaporation on c-Si at 300 °C; 801.9 nm thick film with an amorphous (very fine polycrystalline) dense structure; Heterogenous data processing combining ellipsometric and spectrophotometric measurements; Room temperature.
Conditions: {"film_thickness": 8.019e-07, "substrate": "c-Si", "deposition_temperature": 573}
wavelength (um)	n	k
0.0275043	0.932692578428	0.08813628170936
0.0281449	0.9313001285366	0.09079331604709
0.0288005	0.9297320434036	0.09337687648243
0.0294713	0.9279156023414	0.09587244491825
0.0301578	0.9257362116166	0.09827315067724
0.0308603	0.9229856565492	0.1006262082897
0.0315791	0.9194334114831	0.1033202596911
0.0323147	0.9154665746155	0.1066893406819
0.0330674	0.9112864630263	0.1106360600107
0.0338376	0.9069667565847	0.1150946523082
0.0346258	0.9025339489633	0.1200118912837
0.0354323	0.8979829100633	0.1253478094183
0.0362577	0.8932838740716	0.131078034031
0.0371022	0.8883864285094	0.1371973116508
0.0379664	0.883222518843	0.1437242475821
0.0388508	0.8777095609104	0.1507074879885
0.0397557	0.8717546309833	0.1582337107108
0.0406818	0.8652610122102	0.1664378865621
0.0416294	0.8581391456434	0.1755162379538
0.042599	0.8503254953957	0.1857418620227
0.0435913	0.8418153499844	0.1974812694519
0.0446067	0.8327192056134	0.2112049448629
0.0456457	0.8233546965644	0.2274715194218
0.0467089	0.8143742335708	0.2468360038653
0.0477969	0.8068624051362	0.2695972702574
0.0489102	0.802169419169	0.2953664983691
0.0500495	0.8011912487775	0.3228549161329
0.0512153	0.8036127367741	0.350667424805
0.0524083	0.808555530161	0.3785267374979
0.053629	0.8160215147677	0.4068848779674
0.0548782	0.8268092650555	0.4355132614672
0.0561565	0.8413157569075	0.4632409615347
0.0574645	0.8589303235652	0.4888021032949
0.0588031	0.8784617430636	0.5116957131228
0.0601728	0.8991245647181	0.5315783064407
0.0615744	0.918470573439	0.5488398059102
0.0630086	0.935848279886	0.5661891729949
0.0644763	0.9525630320716	0.5858836424105
0.0659781	0.9712416017965	0.6090142520536
0.0675149	0.9951233876011	0.6348177840874
0.0690876	1.026881537551	0.6602657048681
0.0706968	1.067001902539	0.6804263522863
0.0723436	1.112359458038	0.690172836781
0.0740287	1.156353379138	0.687060028111
0.075753	1.191535520117	0.6736139493531
0.0775175	1.213398130928	0.656859005277
0.0793231	1.222522688856	0.645324095962
0.0811708	1.2242717044	0.6459760358049
0.0830615	1.227608664742	0.6621992188381
0.0849963	1.243708666812	0.6915128016692
0.0869761	1.281759737035	0.7224355718854
0.089002	1.339080018466	0.7360489165879
0.0910751	1.394933689188	0.7215136494946
0.0931966	1.427526255826	0.6921385315341
0.0953674	1.436947767659	0.6723845992642
0.0975888	1.440514427214	0.6749249409065
0.0998619	1.456850615768	0.6965133107655
0.102188	1.4974657213	0.7229651678647
0.104568	1.561656238758	0.7345684753068
0.107004	1.632848856368	0.7155305310006
0.109496	1.683713352775	0.6675794179496
0.112047	1.692621153023	0.6164111498931
0.114657	1.659169471585	0.6085434873455
0.117328	1.641676543024	0.7195417290005
0.12006	1.904778492086	0.8672173665439
0.122857	2.128161813482	0.6203090295616
0.125719	2.16190985688	0.4293792113854
0.128647	2.123266249553	0.2473517821021
0.131644	2.03404312458	0.1392726942506
0.13471	1.95361552074	0.08393589198221
0.137848	1.889401212568	0.05297891965118
0.141059	1.837752009111	0.03393056280664
0.144344	1.795068000773	0.02152842071301
0.147707	1.758819618848	0.01343764427988
0.151147	1.727402439912	0.00878099678065
0.154668	1.700320305557	0.007447734693804
0.15827	1.678466990827	0.008851782726057
0.161957	1.662095736017	0.01052708951975
0.16573	1.649511102154	0.01041929831441
0.16959	1.63816775974	0.00819251930603
0.17354	1.626527237881	0.005240226169969
0.177582	1.614741711323	0.002969265074963
0.181719	1.603605709285	0.001751049116485
0.185952	1.593576028735	0.001257866756956
0.190283	1.584661393041	0.001095884401054
0.194715	1.576689746209	0.001045348944223
0.199251	1.569488891976	0.001022457147247
0.203892	1.562930386487	0.001001983697664
0.208641	1.556921035103	0.0009770665761303
0.213501	1.551389780625	0.000945894854722
0.218474	1.546279737992	0.0009082866179673
0.223563	1.54154394688	0.0008648175718582
0.22877	1.537142932955	0.0008164887963435
0.234099	1.53304312659	0.000764521700717
0.239552	1.529215734943	0.0007102090048836
0.245132	1.525635887063	0.0006548071021583
0.250842	1.522281961511	0.0005994628586438
0.256685	1.519135045628	0.0005451688295533
0.262664	1.516178494998	0.0004927411247118
0.268782	1.513397572068	0.0004428145177382
0.275043	1.510779148736	0.000395849936918
0.281449	1.508311461329	0.0003521501560913
0.288005	1.50598390862	0.00031188025229
0.294713	1.503786885031	0.0002750901471162
0.301578	1.501711641571	0.0002417372486289
0.308603	1.499750162159	0.0002117078255895
0.315791	1.497895034932	0.0001849697115585
0.323147	1.496139798785	0.0001613077530291
0.330674	1.494478107968	0.0001403508667756
0.338376	1.492904141608	0.0001218733733726
0.346258	1.491412515637	0.0001056470436786
0.354323	1.489998228358	9.144800240184e-05
0.362577	1.488656622953	7.906168666855e-05
0.371022	1.487383356628	6.828619707064e-05
0.379664	1.48617437403	5.893435630173e-05
0.388508	1.485025883881	5.083475787073e-05
0.397557	1.483934338156	4.383204956159e-05
0.406818	1.482896413363	3.778665737347e-05
0.416294	1.481908993584	3.257411838717e-05
0.42599	1.480969155033	2.808415703138e-05
0.435913	1.480074151914	2.421960941993e-05
0.446067	1.479221403452	2.089527507958e-05
0.456457	1.478408481938	1.803675438602e-05
0.467089	1.477633101724	1.557931303471e-05
0.477969	1.476893109023	1.346680143972e-05
0.489102	1.476186472509	1.165064656576e-05
0.500495	1.475511274585	1.008892585863e-05
0.512153	1.474865703307	8.745527174975e-06
0.524083	1.474248044888	7.589394507037e-06
0.53629	1.473656676743	6.593856491654e-06
0.548782	1.473090061027	5.736032881439e-06
0.561565	1.47254673862	4.996313092556e-06
0.574645	1.472025323552	4.357900427398e-06
0.588031	1.471524497789	3.806415445182e-06
0.601728	1.471043006379	3.329552095872e-06
0.615744	1.470579652915	2.916780551412e-06
0.630086	1.470133295329	2.559091092765e-06
0.644763	1.469702841881	2.248773892264e-06
0.659781	1.469287247493	1.979230030892e-06
0.675149	1.46888551022	1.744809586811e-06
0.690876	1.468496667993	1.540673105923e-06
0.706968	1.468119795504	1.362673209743e-06
0.723436	1.467754001296	1.207253503153e-06
0.740287	1.467398424989	1.071362313628e-06
0.75753	1.46705223466	9.523791233783e-07
0.775175	1.466714624344	8.480518484234e-07
0.793231	1.466384811612	7.56443376007e-07
0.811708	1.466062035344	6.75885996669e-07
0.830615	1.465745553511	6.049425632079e-07
0.849963	1.465434641059	5.423733780209e-07
0.869761	1.465128587897	4.871079565857e-07
0.89002	1.464826696881	4.382209405679e-07
0.910751	1.464528281908	3.949115417511e-07
0.931966	1.464232666092	3.564859902962e-07
0.953674	1.463939179811	3.223425396357e-07
0.975888	1.46364715902	2.919586473136e-07
0.998619	1.463355943326	2.648800085163e-07
1.02188	1.463064874363	2.407111674265e-07
1.04568	1.462773293888	2.191074731256e-07
1.07004	1.462480542002	1.997681816771e-07
1.09496	1.462185955536	1.824305359187e-07
1.12047	1.461888866006	1.668646798581e-07
1.14657	1.461588597987	1.528692858186e-07
1.17328	1.461284467103	1.402677909119e-07
1.2006	1.460975778147	1.289051546749e-07
1.22857	1.460661823252	1.186450628905e-07
1.25719	1.460341879686	1.093675137432e-07
1.28647	1.460015207784	1.009667318093e-07
1.31644	1.459681048815	9.33493634587e-08
1.3471	1.45933862275	8.64329140291e-08
1.37848	1.458987125705	8.01443929238e-08
1.41059	1.458625727444	7.441913765999e-08
1.44344	1.458253568664	6.919979212159e-08
1.47707	1.457869758328	6.443541779746e-08
1.51147	1.457473370316	6.008071986512e-08
1.54668	1.457063440345	5.609537248447e-08
1.5827	1.456638961977	5.244342996954e-08
1.61957	1.456198883058	4.909281227864e-08
1.6573	1.455742101817	4.601485496662e-08
1.6959	1.455267460696	4.318391513695e-08
1.7354	1.454773742524	4.057702593174e-08
1.77582	1.454259663394	3.817359416051e-08
1.81719	1.453723866172	3.595514852453e-08
1.85952	1.453164911567	3.390530974975e-08
1.90283	1.452581268099	3.201182989566e-08
1.94715	1.451971300591	3.028601649544e-08
1.99251	1.451333250796	2.889973676094e-08
2.03892	1.450665216612	2.895939364173e-08
2.08641	1.44996511615	3.604774627916e-08
2.13501	1.449230634031	7.339628741562e-08
2.18474	1.448459144075	2.216609029445e-07
2.23563	1.447647611157	7.157194798727e-07
2.2877	1.44679251027	2.130675292503e-06
2.34099	1.44588983398	5.649161977461e-06
2.39552	1.444935235959	1.329887447466e-05
2.45132	1.443924150547	2.792126811199e-05
2.50842	1.442851122534	5.260224856123e-05
2.56685	1.441705615709	8.951213948551e-05
2.62664	1.440449341095	0.0001387586136596
2.68782	1.438758826296	0.0004163598512537
2.75043	1.438376152485	0.00129956460598
2.81449	1.437587815403	0.0008956477151702
2.88005	1.436231199583	0.000543438329429
2.94713	1.43468512904	0.000455403761119
3.01578	1.433157820636	0.0004168422080917
3.08603	1.431543099069	0.0003519415239465
3.15791	1.429811050529	0.0002866775775744
3.23147	1.427955576818	0.0002291914372905
3.30674	1.425941649663	0.0001825573995234
3.38376	1.423958759606	0.0004629672048058
3.46258	1.421979108647	0.0002477207411503
3.54323	1.419651702479	9.561139817656e-05
3.62577	1.417068726979	4.527534253115e-05
3.71022	1.414388484629	2.883443437717e-05
3.79664	1.411550833562	1.813545514267e-05
3.88508	1.408529522469	1.131526381804e-05
3.97557	1.405301467342	8.332871278008e-06
4.06818	1.401840944745	1.230850403218e-05
4.16294	1.398119889738	3.133929684432e-05
4.2599	1.394097957115	7.503015830761e-05
4.35913	1.38970861257	0.0003494225337885
4.46067	1.385609538506	0.0004075527334034
4.56457	1.380484598846	0.0001992870605428
4.67089	1.374820476964	0.000235062030127
4.77969	1.368409079187	0.0006521892519293
4.89102	1.3616990808	0.001976365282477
5.00495	1.35558360388	0.003599005300678
5.12153	1.349239504186	0.004443078823269
5.24083	1.341861472582	0.005665159300216
5.3629	1.335140983303	0.00733745405164
5.48782	1.328452414214	0.007137531599012
5.61565	1.31920338244	0.005789578442478
5.74645	1.307725226684	0.005449055944626
5.88031	1.295356579524	0.006075359380633
6.01728	1.282143956065	0.007059295513369
6.15744	1.268434049013	0.007596010838083
6.30086	1.251946610116	0.006765995792776
6.44763	1.232112909458	0.006251679034125
6.59781	1.208699075185	0.006252911637762
6.75149	1.181335890906	0.007070416537665
6.90876	1.148970426421	0.008449449930368
7.06968	1.10987033308	0.01155256493574
7.23436	1.064269812816	0.01547585489458
7.40287	1.00322634974	0.01783027636172
7.5753	0.9168849736119	0.02377687878798
7.75175	0.7832204616653	0.04870599589382
7.93231	0.583275120172	0.1806539890032
8.11708	0.5078358901069	0.463734413203
8.30615	0.5636242058304	0.6758397713959
8.49963	0.6027193594487	0.8372483482917
8.69761	0.6174395516777	1.019381296692
8.9002	0.5791877371509	1.331916331957
9.10751	0.8850605277834	1.947061383459
9.31966	1.712727880997	2.120188213144
9.53674	2.330813475727	1.810465752915
9.75888	2.742214096509	1.319123421115
9.98619	2.81263275937	0.7148234805506
10.2188	2.589559603798	0.2915946589773
10.4568	2.319483833951	0.1111275976564
10.7004	2.117464098448	0.05455623395773
10.9496	1.967320094137	0.03870104217687
11.2047	1.836728266585	0.04747300115196
11.4657	1.716282451238	0.1037260676042
11.7328	1.661331054716	0.2209460429909
12.006	1.705027751634	0.3163943631455
12.2857	1.791040182851	0.3454904997862
12.5719	1.876446766934	0.2919544377186
12.8647	1.88333137857	0.1876464136937
13.1644	1.823741067772	0.1250827350216
13.471	1.767109900735	0.1117183574613
13.7848	1.72959612529	0.1121703528264
14.1059	1.70090943275	0.1128142794595
14.4344	1.674352109113	0.1129814717576
14.7707	1.647394155531	0.1142403503356
15.1147	1.619602669571	0.1182214941907
15.4668	1.591846969044	0.1259068291993
15.827	1.565540352227	0.1370437209089
16.1957	1.541578624489	0.1499802398308
16.573	1.519276688799	0.1622266110003
16.959	1.495816486053	0.1716356747436
17.354	1.466436425403	0.177722476901
17.7582	1.425125800186	0.1827492516512
18.1719	1.365501466347	0.1927008781366
18.5952	1.282029610272	0.218677834136
19.0283	1.172758803039	0.2791982971096
19.4715	1.046689380805	0.4025709786092
19.9251	0.939820036084	0.6213486405257
20.3892	0.9271794954799	0.9424766671647
20.8641	1.098444586728	1.300245942901
21.3501	1.465804735981	1.543374559034
21.8474	1.895772222773	1.561563640748
22.3563	2.235331715739	1.399227322719
22.877	2.43904075614	1.165422410446
23.4099	2.528386566045	0.9325562896018
23.9552	2.539946509526	0.7394054058545
24.5132	2.515091672668	0.5971618797633
25.0842	2.482168767	0.4936504292311
25.6685	2.449856108001	0.4128642449507
26.2664	2.417566743229	0.3463591212356
26.8782	2.384464775571	0.2915218680266
27.5043	2.351375983804	0.2473081272134
28.1449	2.319763923028	0.2123619220507
28.8005	2.290784782866	0.1848899429387
29.4713	2.264976854607	0.1630308138277
30.1578	2.24233600052	0.1451645250323
30.8603	2.222519644608	0.1300504906859
31.5791	2.205041956033	0.1168314293065
32.3147	2.189410011717	0.1049660982115
33.0674	2.17519744962	0.09414071357761
33.8376	2.16207119891	0.08418783422022
34.6258	2.149790044851	0.07502423549055
35.4323	2.138189932956	0.06660884623637
36.2577	2.127165490807	0.05891712578652
37.1022	2.116652733004	0.05192712930042
37.9664	2.106614943319	0.04561307021377
38.8508	2.097032084793	0.03994327060005
39.7557	2.087893337411	0.03488042887631
40.6818	2.079192120092	0.0303829344795
41.6294	2.070922957864	0.02640650633473
42.599	2.06307965563	0.02290577725863
43.5913	2.055654361256	0.01983565113278
44.6067	2.048637210452	0.01715237424213
45.6457	2.042016334329	0.01481432222934
46.7089	2.035778077785	0.01278253265357
47.7969	2.029907325825	0.01102102416559
48.9102	2.024387870316	0.00949694500469
50.0495	2.019202774509	0.008180590556783
51.2153	2.014334709993	0.007045324686227
52.4083	2.009766252456	0.006067433890153
53.629	2.005480130826	0.005225937776777
54.8782	2.001459429104	0.004502374319746
56.1565	1.997687743665	0.003880573947162
57.4645	1.994149300345	0.003346432832578
58.8031	1.990829036574	0.002887692736997
60.1728	1.987712653942	0.002493732345164
61.5744	1.984786646421	0.002155373167784
63.0086	1.982038309063	0.001864701661681
64.4763	1.979455731406	0.001614908173021
65.9781	1.977027779265	0.001400142562027
67.5149	1.974744068058	0.00121538585765
69.0876	1.972594930106	0.001056336963341
70.6968	1.970571378163	0.0009193132451213
72.3436	1.968665066688	0.0008011637447821
74.0287	1.966868252119	0.0006991937445311
75.753	1.965173753347	0.0006110994425283
77.5175	1.963574912834	0.0005349115644965
79.3231	1.962065559131	0.0004689468213132
81.1708	1.960639971009	0.0004117662175538
83.0615	1.959292843499	0.000362139314027
84.9963	1.958019256021	0.0003190136441423
86.9761	1.956814642474	0.0002814885763594
89.002	1.955674763539	0.0002487930009913
91.0751	1.954595680898	0.0002202662985866
93.1966	1.953573733498	0.0001953421182413
95.3674	1.95260551565	0.0001735345578438
97.5888	1.951687856886	0.0001544263945048
99.8619	1.950817803381	0.0001376590628786
102.188	1.949992601179	0.0001229241221999
104.568	1.94920968041	0.0001099559904189
107.004	1.948466641283	9.85257560998e-05
109.496	1.947761240886	8.843590678353e-05
112.047	1.947091381357	7.95158363785e-05
114.657	1.946455098936	7.161801473809e-05
117.328	1.94585055402	6.461472008201e-05
120.06	1.945276021881	5.839524990265e-05
122.857	1.94472988442	5.286353870454e-05
