Material: main / SiO2 / Franta-25C
Optical constants. D. Franta, D. Nečas, I. Ohlídal. A. Giglia. Optical characterization of SiO2 thin films using universal dispersion model over wide spectral range. Proc. SPIE 9890, 989014 (2016) (Numerical data kindly provided by Daniel Franta)
Comments: Film SiO2; Deposited by e-beam evaporation on c-Si at 25 °C; 878.4 nm thick film with a fine polycrystalline structure containing water and organic adsorbed contaminants in pores; Heterogenous data processing combining ellipsometric and spectrophotometric measurements; Room temperature.
Conditions: {"film_thickness": 8.784e-07, "substrate": "c-Si", "deposition_temperature": 298}
wavelength (um)	n	k
0.0275043	0.9330428184375	0.09468007585343
0.0281449	0.9319354162398	0.09755194607012
0.0288005	0.930686890884	0.1003453821506
0.0294713	0.9292321663052	0.1030446334729
0.0301578	0.9274716801558	0.1056420532546
0.0308603	0.9252396257464	0.1081766673709
0.0315791	0.9223659831902	0.1109115267346
0.0323147	0.9190592635835	0.1140821678858
0.0330674	0.9154296972473	0.1176657595116
0.0338376	0.9115118042945	0.1216566076975
0.0346258	0.9073141753725	0.1260588002277
0.0354323	0.9028292961401	0.1308870794161
0.0362577	0.8980382461249	0.1361687692062
0.0371022	0.8929139136817	0.1419464248497
0.0379664	0.8874240687908	0.1482811221039
0.0388508	0.8815350743207	0.1552563334481
0.0397557	0.8752169125264	0.1629822733093
0.0406818	0.8684502632091	0.171600429242
0.0416294	0.8612364882528	0.1812876851072
0.042599	0.8536114629324	0.192258911121
0.0435913	0.8456640916442	0.2047660578928
0.0446067	0.8375597628626	0.2190906032634
0.0456457	0.8295674493013	0.2355248029979
0.0467089	0.8220860144671	0.254336203014
0.0477969	0.81566016696	0.275710764034
0.0489102	0.8109703359311	0.2996751922186
0.0500495	0.8087773247124	0.3260109145627
0.0512153	0.8098089107153	0.3541891323008
0.0524083	0.8145973998668	0.3833693597049
0.053629	0.8233101573135	0.4124981530292
0.0548782	0.8356412904673	0.4405129699094
0.0561565	0.8508332534784	0.4666095713846
0.0574645	0.8678728651659	0.490491620191
0.0588031	0.8858932108246	0.5124919643776
0.0601728	0.9049462063853	0.5329861199348
0.0615744	0.923806815509	0.5514088611268
0.0630086	0.9414661896997	0.5697430492874
0.0644763	0.9588099034686	0.5899390455153
0.0659781	0.9780009643596	0.613219239671
0.0675149	1.002210457964	0.639309712961
0.0690876	1.034704621396	0.6654718272694
0.0706968	1.076756678693	0.6861018299692
0.0723436	1.124898400818	0.6945162437229
0.0740287	1.170390496955	0.6876211729407
0.075753	1.203771281984	0.6698523986869
0.0775175	1.221196987336	0.6512031065681
0.0793231	1.22606053793	0.6412861628218
0.0811708	1.226153300099	0.6455835419586
0.0830615	1.230862928221	0.6647368867243
0.0849963	1.249357945504	0.6940441218604
0.0869761	1.287263645234	0.7225822887418
0.089002	1.340637632749	0.7358328968109
0.0910751	1.393418793293	0.7260122339803
0.0931966	1.428071416361	0.702133199695
0.0953674	1.44123201937	0.6840539857468
0.0975888	1.445502229414	0.6870346945264
0.0998619	1.461012211617	0.7135080962919
0.102188	1.506882170274	0.750406426805
0.104568	1.58876261162	0.7692680430666
0.107004	1.68329133488	0.7414354849233
0.109496	1.746115289008	0.6704165481986
0.112047	1.752576826385	0.5986249537663
0.114657	1.718441701028	0.577672187819
0.117328	1.711831910996	0.6528309004772
0.12006	1.890212336449	0.7332414391875
0.122857	2.067809918735	0.5814135517234
0.125719	2.112648795966	0.4061753109307
0.128647	2.078697358619	0.2515878750809
0.131644	2.007530554097	0.1554526434633
0.13471	1.940141343665	0.1014476266886
0.137848	1.884247478376	0.06900451833224
0.141059	1.838234767503	0.04776284678202
0.144344	1.799641361939	0.03293671961378
0.147707	1.76656894981	0.02221459506118
0.151147	1.737704332194	0.01441482486148
0.154668	1.712158545866	0.008922210369103
0.15827	1.689371191538	0.005521665913306
0.161957	1.669476321877	0.004316322929768
0.16573	1.653313563423	0.004081474879858
0.16959	1.63964468072	0.003243220271104
0.17354	1.626988890886	0.002096616365572
0.177582	1.615257452436	0.001406367979112
0.181719	1.604726934737	0.001107888359877
0.185952	1.595295791184	0.0009583941650999
0.190283	1.586777832216	0.0008714660690557
0.194715	1.579036445942	0.0008236914050738
0.199251	1.571970504439	0.0008027150772113
0.203892	1.565498862456	0.0007990922361382
0.208641	1.559553784727	0.0008052992815363
0.213501	1.55407755061	0.0008154066085637
0.218474	1.549020319386	0.0008248750344137
0.223563	1.544338667543	0.0008304024353128
0.22877	1.539994540172	0.0008297850413653
0.234099	1.535954471476	0.0008217751380709
0.239552	1.532188982481	0.0008059293097266
0.245132	1.528672095118	0.0007824494442095
0.250842	1.525380922631	0.0007520230699302
0.256685	1.52229531099	0.0007156710002593
0.262664	1.519397516325	0.0006746096018826
0.268782	1.516671910503	0.0006301331323976
0.275043	1.514104711366	0.000583519228563
0.281449	1.511683736648	0.0005359583040028
0.288005	1.509398181527	0.0004885056717945
0.294713	1.507238419807	0.0004420538067545
0.301578	1.505195827822	0.000397321333155
0.308603	1.503262627837	0.0003548550053433
0.315791	1.501431737986	0.0003150410333199
0.323147	1.499696443753	0.0002781224955264
0.330674	1.498051465421	0.0002454075184769
0.338376	1.496491886625	0.0002156206525479
0.346258	1.495012320889	0.0001887222344667
0.354323	1.493608026136	0.0001646102868617
0.362577	1.492274617001	0.0001431373992171
0.371022	1.491008004594	0.0001241261207025
0.379664	1.489804360898	0.0001073816061181
0.388508	1.488660092798	9.270166475182e-05
0.397557	1.487571821543	7.988446495498e-05
0.406818	1.486536365782	6.873420158375e-05
0.416294	1.485550727098	5.906505075366e-05
0.42599	1.484612077365	5.070372786854e-05
0.435913	1.483717747463	4.349093999684e-05
0.446067	1.482865217031	3.728198970059e-05
0.456457	1.482052105032	3.194674975177e-05
0.467089	1.481276160977	2.736919051149e-05
0.477969	1.48053525671	2.344660647695e-05
0.489102	1.479827378677	2.008865696541e-05
0.500495	1.479150620612	1.721630871358e-05
0.512153	1.478503176642	1.476074541683e-05
0.524083	1.477883334746	1.266229069449e-05
0.53629	1.477289470575	1.086937622461e-05
0.548782	1.476720041606	9.337575348973e-06
0.561565	1.476173581599	8.028713781676e-06
0.574645	1.475648695384	6.910062665776e-06
0.588031	1.475144053916	5.953614659896e-06
0.601728	1.47465838961	5.135440604899e-06
0.615744	1.47419049192	4.435122288539e-06
0.630086	1.473739203204	3.835255617603e-06
0.644763	1.473303414746	3.321017903022e-06
0.659781	1.472882063056	2.879792787457e-06
0.675149	1.472474126317	2.500846464854e-06
0.690876	1.472078621044	2.175049152254e-06
0.706968	1.471694598858	1.894636202065e-06
0.723436	1.471321143488	1.653003730983e-06
0.740287	1.47095736782	1.44453415251e-06
0.75753	1.47060241111	1.264447504908e-06
0.775175	1.470255436316	1.108674949826e-06
0.793231	1.469915627465	9.737512670974e-07
0.811708	1.46958218715	8.567235827588e-07
0.830615	1.469254334065	7.550739385048e-07
0.849963	1.468931300582	6.666536410875e-07
0.869761	1.468612330381	5.896276216023e-07
0.89002	1.468296676036	5.224272897523e-07
0.910751	1.467983596733	4.637105898886e-07
0.931966	1.467672355835	4.123281576897e-07
0.953674	1.467362218415	3.672946413542e-07
0.975888	1.467052448909	3.277643929069e-07
0.998619	1.466742308407	2.930108565215e-07
1.02188	1.466431052111	2.624090839028e-07
1.04568	1.466117926421	2.354208961634e-07
1.07004	1.46580216598	2.115822952255e-07
1.09496	1.465482990399	1.904928484292e-07
1.12047	1.465159600656	1.718071281807e-07
1.14657	1.464831175216	1.552297297226e-07
1.17328	1.46449686523	1.405209563817e-07
1.2006	1.464155789522	1.275392557158e-07
1.22857	1.463807027916	1.164028952094e-07
1.25719	1.463449613222	1.079984403206e-07
1.28647	1.463082521011	1.053848146848e-07
1.31644	1.462704656157	1.172463462755e-07
1.3471	1.462314836047	1.654892387527e-07
1.37848	1.461911770576	3.002039098752e-07
1.41059	1.461494042124	6.260036771336e-07
1.44344	1.461060091058	1.343235766784e-06
1.47707	1.46060821708	2.804597892669e-06
1.51147	1.46013660784	5.581607007303e-06
1.54668	1.459643406012	1.052680745876e-05
1.5827	1.459126818322	1.880909466044e-05
1.61957	1.458585256255	3.189509583805e-05
1.6573	1.458017482359	5.145324070244e-05
1.6959	1.457422721474	7.917091542067e-05
1.7354	1.456800689674	0.0001164970704124
1.77582	1.456151499576	0.0001643470327865
1.81719	1.455475424615	0.0002228250387922
1.85952	1.454772526098	0.0002910259725564
1.90283	1.454042178913	0.0003669675909209
1.94715	1.453282552134	0.0004476800369698
1.99251	1.452490089933	0.0005294472723713
2.03892	1.451659034012	0.0006081640242934
2.08641	1.450780970063	0.0006797500256327
2.13501	1.449844312162	0.0007405560613308
2.18474	1.448833495844	0.0007877182672483
2.23563	1.447727261058	0.0008196470345954
2.2877	1.446495082964	0.0008382668730936
2.34099	1.445094487316	0.0008576532467212
2.39552	1.443483671464	0.0009153619514146
2.45132	1.441647457449	0.001047554782583
2.50842	1.439548706826	0.001211040413594
2.56685	1.436917259398	0.001288466729104
2.62664	1.43293032898	0.001410127725746
2.68782	1.424637732466	0.002629470242601
2.75043	1.42307489677	0.01976366131545
2.81449	1.429660155772	0.02292197729675
2.88005	1.433959241213	0.02538172728918
2.94713	1.438869254168	0.02608494525807
3.01578	1.443073483701	0.02434453944818
3.08603	1.445714100075	0.02149002752153
3.15791	1.44699821396	0.01771851441993
3.23147	1.44649890407	0.01386059091257
3.30674	1.444760088337	0.01046659857203
3.38376	1.442307257912	0.007988984142969
3.46258	1.439345556053	0.005710268018861
3.54323	1.435966756145	0.004095879996832
3.62577	1.432390163619	0.003024549433086
3.71022	1.428751024341	0.002349434597695
3.79664	1.425119404879	0.001952156154656
3.88508	1.421422953046	0.001705514658682
3.97557	1.417631194107	0.001617941257255
4.06818	1.413747585048	0.001640483916804
4.16294	1.40972202705	0.001744851936719
4.2599	1.405286755098	0.002237418099709
4.35913	1.401390976767	0.002105319674729
4.46067	1.396839526765	0.002215038976322
4.56457	1.391909413093	0.002273838673785
4.67089	1.386465867642	0.002373757997531
4.77969	1.380364413006	0.002706258366986
4.89102	1.373758894341	0.003781577053504
5.00495	1.36761916968	0.005466869110249
5.12153	1.361645757372	0.006428206011276
5.24083	1.354636805764	0.007413401091481
5.3629	1.348043628743	0.008835578498075
5.48782	1.341340798124	0.008500601625395
5.61565	1.331988377022	0.007287514281385
5.74645	1.320550316821	0.007367762392901
5.88031	1.308221226772	0.008550876657479
6.01728	1.294945207435	0.01143029485013
6.15744	1.285258681661	0.01590860934974
6.30086	1.272648893276	0.009815681080928
6.44763	1.252385467444	0.008590125034782
6.59781	1.229873117482	0.008533197832319
6.75149	1.203811805072	0.009467417294174
6.90876	1.173651207879	0.01154242738675
7.06968	1.13846394918	0.01447318209068
7.23436	1.096099532708	0.01759509559475
7.40287	1.041826617909	0.02027870897042
7.5753	0.9652532486839	0.02375304072169
7.75175	0.8448325615748	0.04085590202458
7.93231	0.6589101386318	0.1328778926374
8.11708	0.5335494436089	0.4020260545179
8.30615	0.583437986359	0.6418607062757
8.49963	0.6466854549259	0.8201076601344
8.69761	0.6971017727954	0.9858006985108
8.9002	0.7108893376204	1.215535522712
9.10751	0.8794263528298	1.753716844583
9.31966	1.666705716318	1.994964882223
9.53674	2.309577259637	1.67240650788
9.75888	2.655387652478	1.136112800983
9.98619	2.618740729146	0.5692036109042
10.2188	2.346841623265	0.2642032781259
10.4568	2.12329837475	0.1925600156499
10.7004	2.006015173303	0.1784368488697
10.9496	1.92690202074	0.1532867916035
11.2047	1.841268981453	0.1287501304826
11.4657	1.740342599045	0.1357390067753
11.7328	1.655448027022	0.2066916811851
12.006	1.658148671656	0.3169435270823
12.2857	1.748219589351	0.3639147345546
12.5719	1.826833546997	0.3142714768133
12.8647	1.836123955413	0.231333534985
13.1644	1.796306965571	0.1744957215503
13.471	1.748203470209	0.1530441990704
13.7848	1.710077930431	0.1498967208472
14.1059	1.680766171822	0.1519338135396
14.4344	1.65542828372	0.1553532498888
14.7707	1.631503580876	0.1603998365315
15.1147	1.608540119009	0.1678709613848
15.4668	1.587110026598	0.1779081621821
15.827	1.567872501101	0.1896981583248
16.1957	1.550788952298	0.2016704002067
16.573	1.534616245236	0.2120778021022
16.959	1.51680497818	0.2197328111101
17.354	1.493711858427	0.2246383684921
17.7582	1.460839657104	0.2284779318788
18.1719	1.412888285136	0.2353395819192
18.5952	1.343926025677	0.2534714270338
19.0283	1.249294428496	0.2990193328297
19.4715	1.134153647599	0.4013840729974
19.9251	1.038348863926	0.5971964206651
20.3892	1.045644360745	0.8738138855107
20.8641	1.198366004855	1.143307187031
21.3501	1.464776224801	1.322379443822
21.8474	1.774967608889	1.367534082046
22.3563	2.050711199001	1.287231288995
22.877	2.243326534583	1.132982602746
23.4099	2.35040685894	0.9625721460291
23.9552	2.397307348354	0.8093806197668
24.5132	2.409383173908	0.6813558859427
25.0842	2.401355309671	0.5762858018349
25.6685	2.381258935769	0.4914827148779
26.2664	2.355017823761	0.4246668664321
26.8782	2.327266751542	0.3728604639011
27.5043	2.300877003796	0.3325337016559
28.1449	2.277012326703	0.3004223019363
28.8005	2.255729891013	0.2740716051476
29.4713	2.236629850823	0.2518982739033
30.1578	2.21927448029	0.2329723828096
30.8603	2.203358838415	0.216747260879
31.5791	2.188724923449	0.202854661507
32.3147	2.175312088956	0.1909888037558
33.0674	2.163100334985	0.1808587407869
33.8376	2.152069760312	0.1721798332058
34.6258	2.142179795015	0.164681634171
35.4323	2.133363629258	0.1581188690558
36.2577	2.125531594627	0.1522795204797
37.1022	2.118578362986	0.1469884621363
37.9664	2.112390624482	0.142107261075
38.8508	2.106853517039	0.1375315542264
39.7557	2.101855274563	0.1331874545968
40.6818	2.097290370396	0.1290281307009
41.6294	2.093061926096	0.1250311977676
42.599	2.089084348526	0.1211969353463
43.5913	2.08528700711	0.1175466918582
44.6067	2.081619235566	0.1141203182725
45.6457	2.078056112677	0.1109713156005
46.7089	2.074603582487	0.1081587691743
47.7969	2.071300874077	0.1057360916321
48.9102	2.068218220051	0.103737874105
50.0495	2.065448703588	0.1021673126282
51.2153	2.063094537433	0.1009872470056
52.4083	2.061249749768	0.1001174968013
53.629	2.059982542283	0.09943990306571
54.8782	2.059321002451	0.09881064285032
56.1565	2.059245208706	0.09807756935306
57.4645	2.059687262047	0.09709913711101
58.8031	2.060538916144	0.09576125370744
60.1728	2.06166485306	0.09398914570505
61.5744	2.062918706697	0.09175270174114
63.0086	2.064158822541	0.08906527541919
64.4763	2.065261324242	0.08597716471212
65.9781	2.066129026429	0.08256569109412
67.5149	2.066695760735	0.07892395127886
69.0876	2.066926521703	0.07515003207104
70.6968	2.066814373251	0.07133795408021
72.3436	2.06637527534	0.06757102309005
74.0287	2.065641956591	0.06391774820933
75.753	2.064657763729	0.06043010236228
77.5175	2.063471147895	0.05714367099915
79.3231	2.062131173117	0.0540791425802
81.1708	2.060684194001	0.05124460581158
83.0615	2.059171672312	0.0486381956557
84.9963	2.057628987796	0.0462507387178
86.9761	2.056085041034	0.04406816255038
89.002	2.054562432344	0.04207353561596
91.0751	2.053078016624	0.04024868615466
93.1966	2.05164366606	0.03857540639972
95.3674	2.050267112455	0.0370362850119
97.5888	2.048952777717	0.03561522921588
99.8619	2.047702535709	0.03429774349618
102.188	2.046516374456	0.03307102844734
104.568	2.045392947094	0.03192395518047
107.004	2.044330013773	0.03084696039762
109.496	2.04332478381	0.02983189680895
112.047	2.042374171826	0.02887186407369
114.657	2.041474982844	0.02796103747975
117.328	2.040624040593	0.02709450528552
120.06	2.039818272182	0.02626812092936
122.857	2.039054759715	0.0254783729735
