Material: main / GaAs / Matteo-200ps
Optical constants. D. Matteo, S. Tochitsky, J. Pigeon, C. Joshi. Pulse length effects in the nonresonant long-wave infrared nonlinear optical response of n-Ge, GaAs, and ZnSe. J. Opt. Soc. Am. B 41, E35 (2024)
Comments: 200 ps. Four-wave mixing.
Conditions: {"n2_method": "FWM", "pulse_duration": "200e-12"}
wavelength (um)	n	2
10.6	3.4e-18
