Material: schott / misc / DURAN
Optical constants. DURAN速 Brochure, July 2022 (obtained from http://www.schott.com. Transmission data extracted from a figure and converted to k values by Dr. Daniel R端disser, HTflux Engineering GmbH, Graz, Austria)
Comments: SCHOTT Duran Lab Glass (Tubed). DURAN速 glass is very similar to BOROFLOAT速 33. Dispersion data for BOROFLOAT 33 can be used to approximate the refractive index of DURAN.
Properties: {"nd": 1.527, "Vd": 58.6, "density": [{"value": 2230}], "youngs_modulus": [{"value": "63e9"}], "poissons_ratio": [{"value": 0.2}], "thermal_expansion": [{"temperature_range": "293 573", "value": 3.3e-06}], "thermal_conductivity": [{"temperature": 363, "value": 1.2}], "transformation_temperature": [{"value": 798}], "resistance": {"hydrolytic": 1, "acid": 1, "alkali": 2}}
wavelength (um)	n
0.5876	1.473
wavelength (um)	k
0.250	9.95E-05
0.260	9.47E-05
0.270	8.99E-05
0.280	6.71E-05
0.290	2.72E-05
0.300	1.44E-05
0.310	4.71E-06
0.320	2.28E-06
0.330	1.29E-06
0.340	7.28E-07
0.350	3.96E-07
0.360	2.38E-07
0.370	2.13E-07
0.380	2.41E-07
0.390	1.68E-07
0.400	1.40E-07
0.410	1.47E-07
0.420	1.54E-07
0.430	1.57E-07
0.440	1.53E-07
0.450	1.49E-07
0.460	1.44E-07
0.470	1.44E-07
0.480	1.45E-07
0.490	1.46E-07
0.500	1.48E-07
0.510	1.49E-07
0.520	1.50E-07
0.530	1.52E-07
0.540	1.53E-07
0.550	1.55E-07
0.560	1.57E-07
0.570	1.59E-07
0.580	1.61E-07
0.590	1.62E-07
0.600	1.64E-07
0.610	1.66E-07
0.620	1.68E-07
0.630	1.70E-07
0.640	1.72E-07
0.650	1.74E-07
0.660	1.76E-07
0.670	1.78E-07
0.680	1.79E-07
0.690	1.81E-07
0.700	1.84E-07
0.710	1.98E-07
0.720	2.13E-07
0.730	2.27E-07
0.740	2.42E-07
0.750	2.57E-07
0.760	2.71E-07
0.770	2.86E-07
0.780	3.00E-07
0.790	3.15E-07
0.800	3.29E-07
0.810	3.44E-07
0.820	3.58E-07
0.830	3.73E-07
0.840	3.87E-07
0.850	4.02E-07
0.860	4.17E-07
0.870	4.31E-07
0.880	4.46E-07
0.890	4.60E-07
0.900	4.75E-07
0.910	4.89E-07
0.920	5.04E-07
0.930	5.18E-07
0.940	5.33E-07
0.950	5.47E-07
0.960	5.62E-07
0.970	5.76E-07
0.980	5.91E-07
0.990	6.06E-07
1.000	6.18E-07
1.010	6.28E-07
1.020	6.38E-07
1.030	6.48E-07
1.040	6.58E-07
1.050	6.68E-07
1.060	6.78E-07
1.070	6.88E-07
1.080	6.98E-07
1.090	7.08E-07
1.100	7.18E-07
1.110	7.28E-07
1.120	7.30E-07
1.130	7.28E-07
1.140	7.26E-07
1.150	7.24E-07
1.160	7.22E-07
1.170	7.19E-07
1.180	7.17E-07
1.190	7.15E-07
1.200	7.13E-07
1.210	7.11E-07
1.220	7.09E-07
1.230	7.07E-07
1.240	7.05E-07
1.250	7.02E-07
1.260	7.00E-07
1.270	6.98E-07
1.280	6.96E-07
1.290	6.94E-07
1.300	6.92E-07
1.310	6.90E-07
1.320	6.87E-07
1.330	6.85E-07
1.340	6.83E-07
1.350	6.81E-07
1.360	6.90E-07
1.370	8.03E-07
1.380	9.16E-07
1.390	1.03E-06
1.400	1.54E-06
1.410	1.39E-06
1.420	1.25E-06
1.430	1.10E-06
1.440	9.61E-07
1.450	8.85E-07
1.460	8.46E-07
1.470	8.08E-07
1.480	7.70E-07
1.490	7.31E-07
1.500	6.93E-07
1.510	6.55E-07
1.520	6.54E-07
1.530	6.55E-07
1.540	6.56E-07
1.550	6.57E-07
1.560	6.58E-07
1.570	6.59E-07
1.580	6.60E-07
1.590	6.60E-07
1.600	6.61E-07
1.610	6.62E-07
1.620	6.63E-07
1.630	6.64E-07
1.640	6.65E-07
1.650	6.66E-07
1.660	6.67E-07
1.670	6.68E-07
1.680	6.69E-07
1.690	6.70E-07
1.700	6.71E-07
1.710	6.72E-07
1.720	6.73E-07
1.730	6.74E-07
1.740	6.75E-07
1.750	6.76E-07
1.760	6.77E-07
1.770	6.78E-07
1.780	6.79E-07
1.790	6.80E-07
1.800	6.81E-07
1.810	6.82E-07
1.820	6.83E-07
1.830	6.84E-07
1.840	6.85E-07
1.850	6.87E-07
1.860	7.09E-07
1.870	7.30E-07
1.880	7.52E-07
1.890	7.74E-07
1.900	7.95E-07
1.910	8.17E-07
1.920	8.38E-07
1.930	8.65E-07
1.940	9.37E-07
1.950	1.01E-06
1.960	1.08E-06
1.970	1.15E-06
1.980	1.23E-06
1.990	1.28E-06
2.000	1.26E-06
2.010	1.24E-06
2.020	1.22E-06
2.030	1.20E-06
2.040	1.18E-06
2.050	1.23E-06
2.060	1.31E-06
2.070	1.39E-06
2.080	1.47E-06
2.090	1.55E-06
2.100	1.63E-06
2.110	1.71E-06
2.120	2.04E-06
2.130	2.43E-06
2.140	2.82E-06
2.150	3.20E-06
2.160	3.59E-06
2.170	3.98E-06
2.180	4.37E-06
2.190	4.76E-06
2.200	5.15E-06
2.210	5.54E-06
2.220	5.68E-06
2.230	5.38E-06
2.240	5.09E-06
2.250	4.79E-06
2.260	4.49E-06
2.270	4.19E-06
2.280	3.94E-06
2.290	3.85E-06
2.300	3.76E-06
2.310	3.67E-06
2.320	3.75E-06
2.330	3.87E-06
2.340	4.00E-06
2.350	4.28E-06
2.360	4.99E-06
2.370	5.70E-06
2.380	6.41E-06
2.390	7.12E-06
2.400	7.68E-06
2.410	7.80E-06
2.420	7.91E-06
2.430	8.02E-06
2.440	8.14E-06
2.450	8.25E-06
2.460	8.43E-06
2.470	8.73E-06
2.480	9.03E-06
2.490	9.32E-06
2.500	9.62E-06
